*Heading
** Job name: Flat_Cell_Perpendicular_ER_Contraction Model name: Model-1
** Generated by: Abaqus/CAE 2021.HF6
*Preprint, echo=NO, model=NO, history=NO, contact=NO
**
** PARTS
**
*Part, name=Perp_ER
*Node
      1,           0., 3.32397491e-07,          0.5
      2,           0.,          20.,          0.5
      3,           0.,          20.,         -0.5
      4,           0., 3.32397491e-07,         -0.5
      5,           2.,          20., 0.0500000007
      6,           4.,          20., 0.0500000007
      7,           6.,          20., 0.0500000007
      8,           8.,          20., 0.0500000007
      9,          10.,          20., 0.0500000007
     10,          12.,          20., 0.0500000007
     11,          14.,          20., 0.0500000007
     12,          16.,          20., 0.0500000007
     13,          18.,          20., 0.0500000007
     14,          20.,          20.,          0.5
     15,          20.,          20.,         -0.5
     16,          20., 3.32397491e-07,         -0.5
     17,           2.,           0., 0.0500000007
     18,           4.,           0., 0.0500000007
     19,           6.,           0., 0.0500000007
     20,           8.,           0., 0.0500000007
** ... 15645 like lines cut
*Element, type=C3D10
   1,  1879,  1180,   114,   113,  2615,  2614,  2613,  2617,  2616,  2618
   2,  1879,  1880,   104,  1749,  2621,  2620,  2619,  2623,  2622,  2624
   3,  1879,  1881,  1180,  1880,  2626,  2625,  2615,  2621,  2627,  2628
   4,  1879,   113,  1880,  1180,  2617,  2629,  2621,  2615,  2616,  2628
   5,  1879,  1881,  1749,  1882,  2626,  2630,  2623,  2632,  2631,  2633
   6,  1883,    24,   140,   139,  2636,  2635,  2634,  2638,  2637,  2639
   7,  1883,  1748,   192,   191,  2642,  2641,  2640,  2644,  2643,  2645
   8,  1883,  1884,  1885,  1748,  2648,  2647,  2646,  2642,  2649,  2650
   9,    24,   140,   192,  1883,  2635,  2652,  2651,  2636,  2634,  2640
  10,    95,   122,  1886,   123,  2655,  2654,  2653,  2657,  2656,  2658
  11,  1883,  1884,  1748,  1887,  2648,  2649,  2642,  2660,  2659,  2661
  12,  1888,   208,  1889,    18,  2664,  2663,  2662,  2666,  2665,  2667
  13,  1888,   156,  1889,   547,  2669,  2668,  2662,  2671,  2670,  2672
  14,  1888,  1890,  1358,  1891,  2675,  2674,  2673,  2677,  2676,  2678
  15,  1888,  1890,  1892,  1332,  2675,  2680,  2679,  2682,  2681,  2683
  16,   122,  1886,   123,  1189,  2654,  2658,  2656,  2685,  2684,  2686
  17,  1888,   155,   156,   547,  2688,  2687,  2669,  2671,  2689,  2670
  18,  1893,  1196,   130,   129,  2692,  2691,  2690,  2694,  2693,  2695
  19,  1893,    87,    88,     6,  2698,  2697,  2696,  2700,  2699,  2701
  20,  1893,  1894,  1333,  1895,  2704,  2703,  2702,  2706,  2705,  2707
** ... 9024 like lines cut
*Element, type=B31
9045,  17, 291
9046, 291, 292
9047, 292, 293
9048, 293, 294
9049, 294, 295
9050, 295, 296
9051, 296, 297
9052, 297, 298
9053, 298, 299
9054, 299, 300
9055, 300, 301
9056, 301, 302
9057, 302, 303
9058, 303, 304
9059, 304, 305
9060, 305, 306
9061, 306, 307
9062, 307, 308
9063, 308, 309
9064, 309, 310
** ... 223 like lines cut
*Nset, nset=Set-1
     1,     2,     3,     4,     5,     6,     7,     8,     9,    10,    11,    12,    13,    14,    15,    16
    17,    18,    19,    20,    21,    22,    23,    24,    25,    26,    31,    32,    33,    34,    35,    36
    37,    38,    39,    40,    41,    42,    43,    44,    45,    46,    47,    48,    49,    50,    51,    52
    53,    54,    55,    56,    57,    58,    59,    60,    61,    62,    63,    64,    65,    66,    67,    68
    69,    70,    71,    72,    73,    74,    75,    76,    77,    78,    79,    80,    81,    82,    83,    84
    85,    86,    87,    88,    89,    90,    91,    92,    93,    94,    95,    96,    97,    98,    99,   100
   101,   102,   103,   104,   105,   106,   107,   108,   109,   110,   111,   112,   113,   114,   115,   116
   117,   118,   119,   120,   121,   122,   123,   124,   125,   126,   127,   128,   129,   130,   131,   132
   133,   134,   135,   136,   137,   138,   139,   140,   141,   142,   143,   144,   145,   146,   147,   148
   149,   150,   151,   152,   153,   154,   155,   156,   157,   158,   159,   160,   161,   162,   163,   164
   165,   166,   167,   168,   169,   170,   171,   172,   173,   174,   175,   176,   177,   178,   179,   180
   181,   182,   183,   184,   185,   186,   187,   188,   189,   190,   191,   192,   193,   194,   195,   196
   197,   198,   199,   200,   201,   202,   203,   204,   205,   206,   207,   208,   209,   210,   211,   212
   213,   214,   215,   216,   217,   218,   219,   220,   221,   222,   223,   224,   225,   226,   227,   228
   229,   230,   231,   232,   233,   234,   235,   236,   237,   238,   291,   292,   293,   294,   295,   296
   297,   298,   299,   300,   301,   302,   303,   304,   305,   306,   307,   308,   309,   310,   311,   312
   313,   314,   315,   316,   317,   318,   319,   320,   321,   322,   323,   324,   325,   326,   327,   328
   329,   330,   331,   332,   333,   334,   335,   336,   337,   338,   339,   340,   341,   342,   343,   344
   345,   346,   347,   348,   349,   350,   351,   352,   353,   354,   355,   356,   357,   358,   359,   360
   361,   362,   363,   364,   365,   366,   367,   368,   369,   370,   371,   372,   373,   374,   375,   376
** ... 927 like lines cut
*Elset, elset=Set-1
    1,    2,    3,    4,    5,    6,    7,    8,    9,   10,   11,   12,   13,   14,   15,   16
   17,   18,   19,   20,   21,   22,   23,   24,   25,   26,   27,   28,   29,   30,   31,   32
   33,   34,   35,   36,   37,   38,   39,   40,   41,   42,   43,   44,   45,   46,   47,   48
   49,   50,   51,   52,   53,   54,   55,   56,   57,   58,   59,   60,   61,   62,   63,   64
   65,   66,   67,   68,   69,   70,   71,   72,   73,   74,   75,   76,   77,   78,   79,   80
   81,   82,   83,   84,   85,   86,   87,   88,   89,   90,   91,   92,   93,   94,   95,   96
   97,   98,   99,  100,  101,  102,  103,  104,  105,  106,  107,  108,  109,  110,  111,  112
  113,  114,  115,  116,  117,  118,  119,  120,  121,  122,  123,  124,  125,  126,  127,  128
  129,  130,  131,  132,  133,  134,  135,  136,  137,  138,  139,  140,  141,  142,  143,  144
  145,  146,  147,  148,  149,  150,  151,  152,  153,  154,  155,  156,  157,  158,  159,  160
  161,  162,  163,  164,  165,  166,  167,  168,  169,  170,  171,  172,  173,  174,  175,  176
  177,  178,  179,  180,  181,  182,  183,  184,  185,  186,  187,  188,  189,  190,  191,  192
  193,  194,  195,  196,  197,  198,  199,  200,  201,  202,  203,  204,  205,  206,  207,  208
  209,  210,  211,  212,  213,  214,  215,  216,  217,  218,  219,  220,  221,  222,  223,  224
  225,  226,  227,  228,  229,  230,  231,  232,  233,  234,  235,  236,  237,  238,  239,  240
  241,  242,  243,  244,  245,  246,  247,  248,  249,  250,  251,  252,  253,  254,  255,  256
  257,  258,  259,  260,  261,  262,  263,  264,  265,  266,  267,  268,  269,  270,  271,  272
  273,  274,  275,  276,  277,  278,  279,  280,  281,  282,  283,  284,  285,  286,  287,  288
  289,  290,  291,  292,  293,  294,  295,  296,  297,  298,  299,  300,  301,  302,  303,  304
  305,  306,  307,  308,  309,  310,  311,  312,  313,  314,  315,  316,  317,  318,  319,  320
** ... 540 like lines cut
*Nset, nset=Set-2
   5,   6,   7,   8,   9,  10,  11,  12,  13,  17,  18,  19,  20,  21,  22,  23
  24,  25, 291, 292, 293, 294, 295, 296, 297, 298, 299, 300, 301, 302, 303, 304
 305, 306, 307, 308, 309, 310, 311, 312, 313, 314, 315, 316, 317, 318, 319, 320
 321, 322, 323, 324, 325, 326, 327, 328, 329, 330, 331, 332, 333, 334, 335, 336
 337, 338, 339, 340, 341, 342, 343, 344, 345, 346, 347, 348, 349, 350, 351, 352
 353, 354, 355, 356, 357, 358, 359, 360, 361, 362, 363, 364, 365, 366, 367, 368
 369, 370, 371, 372, 373, 374, 375, 376, 377, 378, 379, 380, 381, 382, 383, 384
 385, 386, 387, 388, 389, 390, 391, 392, 393, 394, 395, 396, 397, 398, 399, 400
 401, 402, 403, 404, 405, 406, 407, 408, 409, 410, 411, 412, 413, 414, 415, 416
 417, 418, 419, 420, 421, 422, 423, 424, 425, 426, 427, 428, 429, 430, 431, 432
 433, 434, 435, 436, 437, 438, 439, 440, 441, 442, 443, 444, 445, 446, 447, 448
 449, 450, 451, 452, 453, 454, 455, 456, 457, 458, 459, 460, 461, 462, 463, 464
 465, 466, 467, 468, 469, 470, 471, 472, 473, 474, 475, 476, 477, 478, 479, 480
 481, 482, 483, 484, 485, 486, 487, 488, 489, 490, 491, 492, 493, 494, 495, 496
 497, 498, 499, 500, 501, 502, 503, 504, 505, 506, 507, 508, 509, 510, 511, 512
 513, 514, 515, 516, 517, 518, 519, 520, 521, 522, 523, 524
*Elset, elset=Set-2, generate
 9045,  9287,     1
*Nset, nset=Set-3
   5,   6,   7,   8,   9,  10,  11,  12,  13,  17,  18,  19,  20,  21,  22,  23
  24,  25, 291, 292, 293, 294, 295, 296, 297, 298, 299, 300, 301, 302, 303, 304
 305, 306, 307, 308, 309, 310, 311, 312, 313, 314, 315, 316, 317, 318, 319, 320
 321, 322, 323, 324, 325, 326, 327, 328, 329, 330, 331, 332, 333, 334, 335, 336
 337, 338, 339, 340, 341, 342, 343, 344, 345, 346, 347, 348, 349, 350, 351, 352
 353, 354, 355, 356, 357, 358, 359, 360, 361, 362, 363, 364, 365, 366, 367, 368
 369, 370, 371, 372, 373, 374, 375, 376, 377, 378, 379, 380, 381, 382, 383, 384
 385, 386, 387, 388, 389, 390, 391, 392, 393, 394, 395, 396, 397, 398, 399, 400
 401, 402, 403, 404, 405, 406, 407, 408, 409, 410, 411, 412, 413, 414, 415, 416
 417, 418, 419, 420, 421, 422, 423, 424, 425, 426, 427, 428, 429, 430, 431, 432
 433, 434, 435, 436, 437, 438, 439, 440, 441, 442, 443, 444, 445, 446, 447, 448
 449, 450, 451, 452, 453, 454, 455, 456, 457, 458, 459, 460, 461, 462, 463, 464
 465, 466, 467, 468, 469, 470, 471, 472, 473, 474, 475, 476, 477, 478, 479, 480
 481, 482, 483, 484, 485, 486, 487, 488, 489, 490, 491, 492, 493, 494, 495, 496
 497, 498, 499, 500, 501, 502, 503, 504, 505, 506, 507, 508, 509, 510, 511, 512
 513, 514, 515, 516, 517, 518, 519, 520, 521, 522, 523, 524
*Elset, elset=Set-3, generate
 9045,  9287,     1
*Nset, nset=Set-4
   5,   6,   7,   8,   9,  10,  11,  12,  13,  17,  18,  19,  20,  21,  22,  23
  24,  25, 291, 292, 293, 294, 295, 296, 297, 298, 299, 300, 301, 302, 303, 304
 305, 306, 307, 308, 309, 310, 311, 312, 313, 314, 315, 316, 317, 318, 319, 320
 321, 322, 323, 324, 325, 326, 327, 328, 329, 330, 331, 332, 333, 334, 335, 336
 337, 338, 339, 340, 341, 342, 343, 344, 345, 346, 347, 348, 349, 350, 351, 352
 353, 354, 355, 356, 357, 358, 359, 360, 361, 362, 363, 364, 365, 366, 367, 368
 369, 370, 371, 372, 373, 374, 375, 376, 377, 378, 379, 380, 381, 382, 383, 384
 385, 386, 387, 388, 389, 390, 391, 392, 393, 394, 395, 396, 397, 398, 399, 400
 401, 402, 403, 404, 405, 406, 407, 408, 409, 410, 411, 412, 413, 414, 415, 416
 417, 418, 419, 420, 421, 422, 423, 424, 425, 426, 427, 428, 429, 430, 431, 432
 433, 434, 435, 436, 437, 438, 439, 440, 441, 442, 443, 444, 445, 446, 447, 448
 449, 450, 451, 452, 453, 454, 455, 456, 457, 458, 459, 460, 461, 462, 463, 464
 465, 466, 467, 468, 469, 470, 471, 472, 473, 474, 475, 476, 477, 478, 479, 480
 481, 482, 483, 484, 485, 486, 487, 488, 489, 490, 491, 492, 493, 494, 495, 496
 497, 498, 499, 500, 501, 502, 503, 504, 505, 506, 507, 508, 509, 510, 511, 512
 513, 514, 515, 516, 517, 518, 519, 520, 521, 522, 523, 524
*Elset, elset=Set-4, generate
 9045,  9287,     1
*Nset, nset=Set-5
     1,     2,     3,     4,     5,     6,     7,     8,     9,    10,    11,    12,    13,    14,    15,    16
    17,    18,    19,    20,    21,    22,    23,    24,    25,    26,    31,    32,    33,    34,    35,    36
    37,    38,    39,    40,    41,    42,    43,    44,    45,    46,    47,    48,    49,    50,    51,    52
    53,    54,    55,    56,    57,    58,    59,    60,    61,    62,    63,    64,    65,    66,    67,    68
    69,    70,    71,    72,    73,    74,    75,    76,    77,    78,    79,    80,    81,    82,    83,    84
    85,    86,    87,    88,    89,    90,    91,    92,    93,    94,    95,    96,    97,    98,    99,   100
   101,   102,   103,   104,   105,   106,   107,   108,   109,   110,   111,   112,   113,   114,   115,   116
   117,   118,   119,   120,   121,   122,   123,   124,   125,   126,   127,   128,   129,   130,   131,   132
   133,   134,   135,   136,   137,   138,   139,   140,   141,   142,   143,   144,   145,   146,   147,   148
   149,   150,   151,   152,   153,   154,   155,   156,   157,   158,   159,   160,   161,   162,   163,   164
   165,   166,   167,   168,   169,   170,   171,   172,   173,   174,   175,   176,   177,   178,   179,   180
   181,   182,   183,   184,   185,   186,   187,   188,   189,   190,   191,   192,   193,   194,   195,   196
   197,   198,   199,   200,   201,   202,   203,   204,   205,   206,   207,   208,   209,   210,   211,   212
   213,   214,   215,   216,   217,   218,   219,   220,   221,   222,   223,   224,   225,   226,   227,   228
   229,   230,   231,   232,   233,   234,   235,   236,   237,   238,   525,   526,   527,   528,   529,   530
   531,   532,   533,   534,   535,   536,   537,   538,   539,   540,   541,   542,   543,   544,   545,   546
   547,   548,   549,   550,   551,   552,   553,   554,   555,   556,   557,   558,   559,   560,   561,   562
   563,   564,   565,   566,   567,   568,   569,   570,   571,   572,   573,   574,   575,   576,   577,   578
   579,   580,   581,   582,   583,   584,   585,   586,   587,   588,   589,   590,   591,   592,   593,   594
   595,   596,   597,   598,   599,   600,   601,   602,   603,   604,   605,   606,   607,   608,   609,   610
** ... 912 like lines cut
*Elset, elset=Set-5, generate
    1,  8716,     1
*Nset, nset=Set-6
     2,     3,     5,     6,     7,     8,     9,    10,    11,    12,    13,    14,    15,    27,    28,    29
    30,    83,    84,    85,    86,    87,    88,    89,    90,    91,    92,    93,    94,    95,    96,    97
    98,    99,   100,   101,   102,   103,   104,   105,   106,   107,   108,   109,   110,   111,   112,   113
   114,   115,   116,   117,   118,   119,   120,   121,   122,   123,   124,   125,   126,   127,   128,   129
   130,   131,   132,   133,   134,   239,   240,   241,   242,   243,   244,   245,   246,   247,   248,   249
   250,   251,   252,   253,   254,   255,   256,   257,   258,   259,   260,   261,   262,   263,   264,   265
   266,   267,   268,   269,   270,   271,   272,   273,   274,   275,   276,   277,   278,   279,   280,   281
   282,   283,   284,   285,   286,   287,   288,   289,   290,   525,  2592,  2593,  2594,  2595,  2596,  2597
  2598,  2599,  2600,  2601,  2602,  2603,  2604,  2605,  2606,  2607,  2608,  2609,  2610,  2611,  2612,  2618
  2655,  2656,  2657,  2695,  2697,  2699,  2701,  2736,  2768,  2826,  2838,  2856,  2884,  2929,  2936,  2941
  2973,  2974,  2975,  2998,  3001,  3615,  3619,  3620,  3622,  4417,  4419,  4421,  4430,  4432,  4489,  4496
  4497,  4608,  4611,  4617,  8505,  8506,  8507,  8558,  8566,  9495,  9498,  9502,  9503,  9505, 10352, 10353
 10354, 10358, 10363, 10711, 10719, 11077, 11218, 11221, 11228, 11233, 11941, 12006, 12104, 12110, 12112, 12113
 12117, 12131, 12133, 12196, 12201, 12203, 12207, 12211, 12214, 12232, 12239, 12248, 12251, 12276, 12288, 12290
 12292, 12304, 12319, 12322, 12324, 12325, 12327, 12332, 12333, 12335, 12361, 12385, 12386, 12387, 12393, 12395
 12428, 12432, 12465, 12466, 12503, 12520, 12521, 12537, 12539, 12555, 12557, 12559, 12560, 12583, 12603, 12631
 12649, 12650, 12652, 12654, 12662, 12663, 12668, 12670, 14001, 14002, 14286, 14296, 14397, 14526, 14655, 14686
 14709, 14742, 14772, 14773, 14800, 14861, 14868, 14870, 14965, 15145, 15215, 15216, 15217, 15218, 15219, 15220
 15221, 15222, 15223, 15224, 15225, 15226, 15227, 15228, 15229, 15230, 15231, 15232, 15233, 15234, 15235, 15236
 15237, 15238, 15239, 15240, 15241, 15242, 15243, 15244, 15245, 15246, 15247, 15248, 15249, 15250, 15251, 15252
** ... 26 like lines cut
*Elset, elset=Set-6, generate
 8717,  9044,     1
** Section: Cyto
*Solid Section, elset=Set-5, material=Cytoplasm
,
** Section: Cortex
*Solid Section, elset=Set-6, material=Actin_Cortex
,
** Section: ER  Profile: ER_Circ
*Beam Section, elset=Set-3, material=ER, temperature=GRADIENTS, section=CIRC
0.05
0.,0.,-1.
*End Part
**  
**
** ASSEMBLY
**
*Assembly, name=Assembly
**  
*Instance, name=Perp_ER-1, part=Perp_ER
*End Instance
**  
*Nset, nset=Perp_MTs, instance=Perp_ER-1
   5,   6,   7,   8,   9,  10,  11,  12,  13,  17,  18,  19,  20,  21,  22,  23
  24,  25, 291, 292, 293, 294, 295, 296, 297, 298, 299, 300, 301, 302, 303, 304
 305, 306, 307, 308, 309, 310, 311, 312, 313, 314, 315, 316, 317, 318, 319, 320
 321, 322, 323, 324, 325, 326, 327, 328, 329, 330, 331, 332, 333, 334, 335, 336
 337, 338, 339, 340, 341, 342, 343, 344, 345, 346, 347, 348, 349, 350, 351, 352
 353, 354, 355, 356, 357, 358, 359, 360, 361, 362, 363, 364, 365, 366, 367, 368
 369, 370, 371, 372, 373, 374, 375, 376, 377, 378, 379, 380, 381, 382, 383, 384
 385, 386, 387, 388, 389, 390, 391, 392, 393, 394, 395, 396, 397, 398, 399, 400
 401, 402, 403, 404, 405, 406, 407, 408, 409, 410, 411, 412, 413, 414, 415, 416
 417, 418, 419, 420, 421, 422, 423, 424, 425, 426, 427, 428, 429, 430, 431, 432
 433, 434, 435, 436, 437, 438, 439, 440, 441, 442, 443, 444, 445, 446, 447, 448
 449, 450, 451, 452, 453, 454, 455, 456, 457, 458, 459, 460, 461, 462, 463, 464
 465, 466, 467, 468, 469, 470, 471, 472, 473, 474, 475, 476, 477, 478, 479, 480
 481, 482, 483, 484, 485, 486, 487, 488, 489, 490, 491, 492, 493, 494, 495, 496
 497, 498, 499, 500, 501, 502, 503, 504, 505, 506, 507, 508, 509, 510, 511, 512
 513, 514, 515, 516, 517, 518, 519, 520, 521, 522, 523, 524
*Elset, elset=Perp_MTs, instance=Perp_ER-1, generate
 9045,  9287,     1
*Nset, nset=Set-30, instance=Perp_ER-1
     1,     2,     3,     4,    31,    32,    33,    34,    35,    36,    37,    38,    39,    40,    41,    42
    43,    44,    45,    46,    47,    48,    49,    50,    51,    52,    53,    54,    55,    56,    57,    58
    59,    60,    61,    62,    63,    64,    65,    66,    67,    68,    69,    70,    71,    72,    73,    74
    75,    76,    77,    78,    79,    80,    81,    82,  2916,  2919,  2921,  2928,  2929,  2931,  3626,  3639
  3640,  3641,  3642,  3648,  3656,  3658,  3660,  3733,  3777,  3779,  3781,  3798,  3807,  3872,  3876,  3877
  3945,  3946,  3948,  3950,  3971,  3977,  4091,  4337,  4584,  4585,  4586,  4665,  4671,  4685,  6122,  6123
  6131,  6849,  6856,  6857,  7121,  7122,  7682,  7914,  8218,  8489,  8493,  8494,  8495,  9671,  9673,  9674
 10429, 10430, 10668, 10669, 10670, 10671, 10970, 10972, 10974, 11185, 11186, 11418, 11457, 11458, 11490, 11535
 11536, 11574, 11575, 11752, 11760, 11761, 11793, 11794, 11796, 11845, 11846, 11896, 11905, 11906, 11907, 11908
 11925, 11926, 11946, 11947, 11967, 11995, 12016, 12026, 13036, 13199, 13200, 13306, 13308, 13309, 13454, 13873
 13987, 14097, 14312, 14314, 14519
*Elset, elset=Set-30, instance=Perp_ER-1
   74,  241,  242,  247,  277,  320,  477,  880,  884, 1083, 1165, 1610, 2027, 2463, 2596, 2699
 2827, 2847, 2873, 2894, 2911, 3030, 3051, 3074, 3098, 3104, 3105, 3124, 3138, 3193, 3197, 3931
 3989, 4112, 4114, 4119, 4205, 4361, 4851, 4884, 5132, 5473, 5514, 5629, 6011, 6399, 6524, 6672
 7488, 7538, 7562, 7580, 7584, 7599
*Nset, nset=Set-31, instance=Perp_ER-1
     1,     4,    16,    17,    18,    19,    20,    21,    22,    23,    24,    25,    26,   135,   136,   137
   138,   139,   140,   141,   142,   143,   144,   145,   146,   147,   148,   149,   150,   151,   152,   153
   154,   155,   156,   157,   158,   159,   160,   187,   188,   189,   190,   191,   192,   193,   194,   195
   196,   197,   198,   199,   200,   201,   202,   203,   204,   205,   206,   207,   208,   209,   210,   211
   212,  1202,  2635,  2637,  2639,  2645,  2651,  2652,  2665,  2687,  2748,  2762,  2771,  2787,  2789,  2818
  2846,  2902,  2910,  2911,  2918,  2919,  4392,  4398,  4401,  4402,  4404,  4405,  4408,  4434,  4442,  4445
  4446,  4447,  4591,  4594,  4603,  4604,  4605,  4606,  4771,  4785,  4787,  4789,  4791,  4792,  5723,  5726
  5728,  5729,  5730,  5731,  5732,  6252,  6261,  6265,  6266,  6270,  8802,  8806,  8808,  8810,  8811,  9899
  9900,  9901,  9907,  9911, 11004, 11207, 11208, 11209, 11210, 11214, 11291, 11375, 11377, 11379, 11681, 11682
 12221, 12351, 12355, 12368, 12370, 12371, 12374, 12376, 12378, 12381, 12710, 12737, 12740, 12741, 12747, 12748
 12749, 12753, 12807, 12824, 12835, 12847, 12862, 12893, 12897, 12900, 12902, 12914, 12981, 12985, 12988, 12989
 13020, 13030, 13039, 13079, 14048, 14049, 14050, 14452, 14539, 14605, 14796, 14878, 14959, 14971, 14972, 14980
 14982, 14987, 14994, 14996, 14998, 14999, 15000, 15022, 15023, 15025, 15030, 15129, 15184
*Elset, elset=Set-31, instance=Perp_ER-1
    6,    9,   40,   69,   71,  427,  428,  438,  481,  484,  525,  526,  770,  771,  919, 1712
 1714, 2113, 2116, 2711, 2712, 2805, 2979, 3330, 3431, 3432, 3700, 3709, 3713, 3771, 3782, 3805
 3810, 3824, 3839, 3882, 3888, 3915, 3922, 3927, 3935, 3976, 5074, 5076, 5773, 5930, 5932, 6110
 6816, 7152, 7209, 7227, 7236, 7242, 7262, 7280, 7282, 7304, 7311, 7314, 7316, 7320, 7349, 7383
 7389, 7394, 7421, 7455, 7468, 7662, 8054, 8350, 8489, 8641
*Nset, nset=Set-32, instance=Perp_ER-1
    14,    15,    16,    26,   161,   162,   163,   164,   165,   166,   167,   168,   169,   170,   171,   172
   173,   174,   175,   176,   177,   178,   179,   180,   181,   182,   183,   184,   185,   186,   213,   214
   215,   216,   217,   218,   219,   220,   221,   222,   223,   224,   225,   226,   227,   228,   229,   230
   231,   232,   233,   234,   235,   236,   237,   238,  2869,  2873,  2874,  2882,  2884,  2886,  2896,  2897
  3088,  3107,  3112,  3159,  3161,  3163,  3300,  3301,  3302,  3337,  3351,  3352,  3361,  3369,  3374,  3375
  3430,  3446,  3447,  3449,  3491,  3505,  3506,  3866,  3912,  3927,  3928,  4001,  4051,  4062,  4092,  4093
  4094,  6704,  6706,  7588,  7595,  7596,  7961,  7964,  7965,  7966,  8008,  8010,  8320,  8321,  8322,  8909
  8910,  8911,  9102,  9103,  9104, 10120, 10396, 10399, 10400, 10401, 11348, 11414, 11416, 11417, 11455, 11461
 11462, 11464, 11682, 11937, 11938, 11939, 11943, 11961, 12024, 12027, 12028, 12029, 12580, 12585, 12586, 12587
 12679, 13100, 13225, 13628, 13953, 13954, 14264, 14281, 14322, 14326, 14327, 14328, 14330, 14331, 14348, 14361
 14396, 14403, 14421, 14424, 14433
*Elset, elset=Set-32, instance=Perp_ER-1
   60,   62,   66,  126,  157,  169,  175,  193,  206,  298,  315,  354, 1271, 1310, 1435, 1549
 1749, 1750, 1819, 2322, 2323, 2826, 2850, 3133, 3136, 3147, 3198, 3579, 3658, 4002, 4963, 5400
 5426, 5474, 5484, 5485, 5490, 5491, 5495, 5497, 5499, 5500, 5507, 5549, 5584, 5634, 5654, 5655
 5703, 5713, 5733, 6446, 6797, 6807
*Nset, nset=Set-33, instance=Perp_ER-1
    14,    15,    16,    26,    29,    30,   161,   162,   163,   164,   165,   166,   167,   168,   169,   170
   171,   172,   173,   174,   175,   176,   177,   178,   179,   180,   181,   182,   183,   184,   185,   186
   213,   214,   215,   216,   217,   218,   219,   220,   221,   222,   223,   224,   225,   226,   227,   228
   229,   230,   231,   232,   233,   234,   235,   236,   237,   238,  2869,  2873,  2874,  2882,  2884,  2886
  2896,  2897,  3088,  3107,  3112,  3159,  3161,  3163,  3300,  3301,  3302,  3337,  3351,  3352,  3361,  3369
  3374,  3375,  3430,  3446,  3447,  3449,  3491,  3505,  3506,  3866,  3912,  3927,  3928,  4001,  4051,  4062
  4092,  4093,  4094,  6704,  6706,  7588,  7595,  7596,  7961,  7964,  7965,  7966,  8008,  8010,  8320,  8321
  8322,  8909,  8910,  8911,  9102,  9103,  9104, 10120, 10396, 10399, 10400, 10401, 11348, 11414, 11416, 11417
 11455, 11461, 11462, 11464, 11682, 11937, 11938, 11939, 11943, 11961, 12024, 12027, 12028, 12029, 12580, 12585
 12586, 12587, 12679, 13100, 13225, 13628, 13953, 13954, 14264, 14281, 14322, 14326, 14327, 14328, 14330, 14331
 14348, 14361, 14396, 14403, 14421, 14424, 14433, 15387, 15575, 15580, 15640
*Elset, elset=Set-33, instance=Perp_ER-1
   60,   62,   66,  126,  157,  169,  175,  193,  206,  298,  315,  354, 1271, 1310, 1435, 1549
 1749, 1750, 1819, 2322, 2323, 2826, 2850, 3133, 3136, 3147, 3198, 3579, 3658, 4002, 4963, 5400
 5426, 5474, 5484, 5485, 5490, 5491, 5495, 5497, 5499, 5500, 5507, 5549, 5584, 5634, 5654, 5655
 5703, 5713, 5733, 6446, 6797, 6807, 8884, 8958
*Nset, nset=Set-34, instance=Perp_ER-1
     1,     2,     3,     4,    27,    28,    31,    32,    33,    34,    35,    36,    37,    38,    39,    40
    41,    42,    43,    44,    45,    46,    47,    48,    49,    50,    51,    52,    53,    54,    55,    56
    57,    58,    59,    60,    61,    62,    63,    64,    65,    66,    67,    68,    69,    70,    71,    72
    73,    74,    75,    76,    77,    78,    79,    80,    81,    82,  2916,  2919,  2921,  2928,  2929,  2931
  3626,  3639,  3640,  3641,  3642,  3648,  3656,  3658,  3660,  3733,  3777,  3779,  3781,  3798,  3807,  3872
  3876,  3877,  3945,  3946,  3948,  3950,  3971,  3977,  4091,  4337,  4584,  4585,  4586,  4665,  4671,  4685
  6122,  6123,  6131,  6849,  6856,  6857,  7121,  7122,  7682,  7914,  8218,  8489,  8493,  8494,  8495,  9671
  9673,  9674, 10429, 10430, 10668, 10669, 10670, 10671, 10970, 10972, 10974, 11185, 11186, 11418, 11457, 11458
 11490, 11535, 11536, 11574, 11575, 11752, 11760, 11761, 11793, 11794, 11796, 11845, 11846, 11896, 11905, 11906
 11907, 11908, 11925, 11926, 11946, 11947, 11967, 11995, 12016, 12026, 13036, 13199, 13200, 13306, 13308, 13309
 13454, 13873, 13987, 14097, 14312, 14314, 14519, 15607, 15609, 15611, 15655
*Elset, elset=Set-34, instance=Perp_ER-1
   74,  241,  242,  247,  277,  320,  477,  880,  884, 1083, 1165, 1610, 2027, 2463, 2596, 2699
 2827, 2847, 2873, 2894, 2911, 3030, 3051, 3074, 3098, 3104, 3105, 3124, 3138, 3193, 3197, 3931
 3989, 4112, 4114, 4119, 4205, 4361, 4851, 4884, 5132, 5473, 5514, 5629, 6011, 6399, 6524, 6672
 7488, 7538, 7562, 7580, 7584, 7599, 8910, 9033
*Nset, nset=Set-35, instance=Perp_ER-1
     1,     2,     3,     4,    14,    15,    16,    26,    27,    28,    29,    30,    31,    32,    33,    34
    35,    36,    37,    38,    39,    40,    41,    42,    43,    44,    45,    46,    47,    48,    49,    50
    51,    52,    53,    54,    55,    56,    57,    58,    59,    60,    61,    62,    63,    64,    65,    66
    67,    68,    69,    70,    71,    72,    73,    74,    75,    76,    77,    78,    79,    80,    81,    82
   161,   162,   163,   164,   165,   166,   167,   168,   169,   170,   171,   172,   173,   174,   175,   176
   177,   178,   179,   180,   181,   182,   183,   184,   185,   186,   213,   214,   215,   216,   217,   218
   219,   220,   221,   222,   223,   224,   225,   226,   227,   228,   229,   230,   231,   232,   233,   234
   235,   236,   237,   238,  2869,  2873,  2874,  2882,  2884,  2886,  2896,  2897,  2916,  2919,  2921,  2928
  2929,  2931,  3088,  3107,  3112,  3159,  3161,  3163,  3300,  3301,  3302,  3337,  3351,  3352,  3361,  3369
  3374,  3375,  3430,  3446,  3447,  3449,  3491,  3505,  3506,  3626,  3639,  3640,  3641,  3642,  3648,  3656
  3658,  3660,  3733,  3777,  3779,  3781,  3798,  3807,  3866,  3872,  3876,  3877,  3912,  3927,  3928,  3945
  3946,  3948,  3950,  3971,  3977,  4001,  4051,  4062,  4091,  4092,  4093,  4094,  4337,  4584,  4585,  4586
  4665,  4671,  4685,  6122,  6123,  6131,  6704,  6706,  6849,  6856,  6857,  7121,  7122,  7588,  7595,  7596
  7682,  7914,  7961,  7964,  7965,  7966,  8008,  8010,  8218,  8320,  8321,  8322,  8489,  8493,  8494,  8495
  8909,  8910,  8911,  9102,  9103,  9104,  9671,  9673,  9674, 10120, 10396, 10399, 10400, 10401, 10429, 10430
 10668, 10669, 10670, 10671, 10970, 10972, 10974, 11185, 11186, 11348, 11414, 11416, 11417, 11418, 11455, 11457
 11458, 11461, 11462, 11464, 11490, 11535, 11536, 11574, 11575, 11682, 11752, 11760, 11761, 11793, 11794, 11796
 11845, 11846, 11896, 11905, 11906, 11907, 11908, 11925, 11926, 11937, 11938, 11939, 11943, 11946, 11947, 11961
 11967, 11995, 12016, 12024, 12026, 12027, 12028, 12029, 12580, 12585, 12586, 12587, 12679, 13036, 13100, 13199
 13200, 13225, 13306, 13308, 13309, 13454, 13628, 13873, 13953, 13954, 13987, 14097, 14264, 14281, 14312, 14314
 14322, 14326, 14327, 14328, 14330, 14331, 14348, 14361, 14396, 14403, 14421, 14424, 14433, 14519, 15387, 15575
 15580, 15607, 15609, 15611, 15640, 15655
*Elset, elset=Set-35, instance=Perp_ER-1
   60,   62,   66,   74,  126,  157,  169,  175,  193,  206,  241,  242,  247,  277,  298,  315
  320,  354,  477,  880,  884, 1083, 1165, 1271, 1310, 1435, 1549, 1610, 1749, 1750, 1819, 2027
 2322, 2323, 2463, 2596, 2699, 2826, 2827, 2847, 2850, 2873, 2894, 2911, 3030, 3051, 3074, 3098
 3104, 3105, 3124, 3133, 3136, 3138, 3147, 3193, 3197, 3198, 3579, 3658, 3931, 3989, 4002, 4112
 4114, 4119, 4205, 4361, 4851, 4884, 4963, 5132, 5400, 5426, 5473, 5474, 5484, 5485, 5490, 5491
 5495, 5497, 5499, 5500, 5507, 5514, 5549, 5584, 5629, 5634, 5654, 5655, 5703, 5713, 5733, 6011
 6399, 6446, 6524, 6672, 6797, 6807, 7488, 7538, 7562, 7580, 7584, 7599, 8884, 8910, 8958, 9033
*Nset, nset=Set-36, instance=Perp_ER-1
     1,     2,     3,     4,    14,    15,    16,    26,    27,    28,    29,    30,    31,    32,    33,    34
    35,    36,    37,    38,    39,    40,    41,    42,    43,    44,    45,    46,    47,    48,    49,    50
    51,    52,    53,    54,    55,    56,    57,    58,    59,    60,    61,    62,    63,    64,    65,    66
    67,    68,    69,    70,    71,    72,    73,    74,    75,    76,    77,    78,    79,    80,    81,    82
   161,   162,   163,   164,   165,   166,   167,   168,   169,   170,   171,   172,   173,   174,   175,   176
   177,   178,   179,   180,   181,   182,   183,   184,   185,   186,   213,   214,   215,   216,   217,   218
   219,   220,   221,   222,   223,   224,   225,   226,   227,   228,   229,   230,   231,   232,   233,   234
   235,   236,   237,   238,  2869,  2873,  2874,  2882,  2884,  2886,  2896,  2897,  2916,  2919,  2921,  2928
  2929,  2931,  3088,  3107,  3112,  3159,  3161,  3163,  3300,  3301,  3302,  3337,  3351,  3352,  3361,  3369
  3374,  3375,  3430,  3446,  3447,  3449,  3491,  3505,  3506,  3626,  3639,  3640,  3641,  3642,  3648,  3656
  3658,  3660,  3733,  3777,  3779,  3781,  3798,  3807,  3866,  3872,  3876,  3877,  3912,  3927,  3928,  3945
  3946,  3948,  3950,  3971,  3977,  4001,  4051,  4062,  4091,  4092,  4093,  4094,  4337,  4584,  4585,  4586
  4665,  4671,  4685,  6122,  6123,  6131,  6704,  6706,  6849,  6856,  6857,  7121,  7122,  7588,  7595,  7596
  7682,  7914,  7961,  7964,  7965,  7966,  8008,  8010,  8218,  8320,  8321,  8322,  8489,  8493,  8494,  8495
  8909,  8910,  8911,  9102,  9103,  9104,  9671,  9673,  9674, 10120, 10396, 10399, 10400, 10401, 10429, 10430
 10668, 10669, 10670, 10671, 10970, 10972, 10974, 11185, 11186, 11348, 11414, 11416, 11417, 11418, 11455, 11457
 11458, 11461, 11462, 11464, 11490, 11535, 11536, 11574, 11575, 11682, 11752, 11760, 11761, 11793, 11794, 11796
 11845, 11846, 11896, 11905, 11906, 11907, 11908, 11925, 11926, 11937, 11938, 11939, 11943, 11946, 11947, 11961
 11967, 11995, 12016, 12024, 12026, 12027, 12028, 12029, 12580, 12585, 12586, 12587, 12679, 13036, 13100, 13199
 13200, 13225, 13306, 13308, 13309, 13454, 13628, 13873, 13953, 13954, 13987, 14097, 14264, 14281, 14312, 14314
 14322, 14326, 14327, 14328, 14330, 14331, 14348, 14361, 14396, 14403, 14421, 14424, 14433, 14519, 15387, 15575
 15580, 15607, 15609, 15611, 15640, 15655
*Elset, elset=Set-36, instance=Perp_ER-1
   60,   62,   66,   74,  126,  157,  169,  175,  193,  206,  241,  242,  247,  277,  298,  315
  320,  354,  477,  880,  884, 1083, 1165, 1271, 1310, 1435, 1549, 1610, 1749, 1750, 1819, 2027
 2322, 2323, 2463, 2596, 2699, 2826, 2827, 2847, 2850, 2873, 2894, 2911, 3030, 3051, 3074, 3098
 3104, 3105, 3124, 3133, 3136, 3138, 3147, 3193, 3197, 3198, 3579, 3658, 3931, 3989, 4002, 4112
 4114, 4119, 4205, 4361, 4851, 4884, 4963, 5132, 5400, 5426, 5473, 5474, 5484, 5485, 5490, 5491
 5495, 5497, 5499, 5500, 5507, 5514, 5549, 5584, 5629, 5634, 5654, 5655, 5703, 5713, 5733, 6011
 6399, 6446, 6524, 6672, 6797, 6807, 7488, 7538, 7562, 7580, 7584, 7599, 8884, 8910, 8958, 9033
*End Assembly
** 
** MATERIALS
** 
*Material, name=Actin_Cortex
*Depvar
     46,
*User Material, constants=6
 0.073,  0.45,    1., 0.001,   0.1,    1.
*Material, name=Cytoplasm
*Elastic
 0.073, 0.45
*Material, name=ER
*Elastic
 19.3, 0.45
** 
** BOUNDARY CONDITIONS
** 
** Name: BC-2 Type: Symmetry/Antisymmetry/Encastre
*Boundary
Set-31, ENCASTRE
** ----------------------------------------------------------------
** 
** STEP: Step-1
** 
*Step, name=Step-1, nlgeom=NO
*Static
0.1, 1., 1e-06, 1.
** 
** OUTPUT REQUESTS
** 
*Restart, write, frequency=0
** 
** FIELD OUTPUT: F-Output-1
** 
*Output, field
*Node Output
CF, RF, U
*Element Output, directions=YES
ELEDEN, LE, PE, PEEQ, PEMAG, S
*Contact Output
CDISP, CSTRESS
** 
** HISTORY OUTPUT: H-Output-1
** 
*Output, history, variable=PRESELECT
** 
** HISTORY OUTPUT: H-Output-2
** 
*Output, history
*Energy Output, elset=Perp_MTs, variable=PRESELECT
*End Step
