*Heading
** Job name: Flat_Cell_Parallel_ER_Protrusion Model name: Model-1
** Generated by: Abaqus/CAE 2021.HF6
*Preprint, echo=NO, model=NO, history=NO, contact=NO
**
** PARTS
**
*Part, name=Parallel_ER
*Node
      1,          20.,          20.,          0.5
      2,          20., 3.32397491e-07,          0.5
      3,          20., 3.32397491e-07,         -0.5
      4,          20.,          20.,         -0.5
      5,           2.,           0., 0.0500000007
      6,           4.,           0., 0.0500000007
      7,           6.,           0., 0.0500000007
      8,           8.,           0., 0.0500000007
      9,          10.,           0., 0.0500000007
     10,          12.,           0., 0.0500000007
     11,          14.,           0., 0.0500000007
     12,          16.,           0., 0.0500000007
     13,          18.,           0., 0.0500000007
     14,           0., 3.32397491e-07,          0.5
     15,           0., 3.32397491e-07,         -0.5
     16,           0.,          20.,         -0.5
     17,           2.,          20., 0.0500000007
     18,           4.,          20., 0.0500000007
     19,           6.,          20., 0.0500000007
     20,           8.,          20., 0.0500000007
** ... 15667 like lines cut
*Element, type=C3D10
   1,  1879,  1880,  1592,  1618,  2621,  2620,  2619,  2623,  2622,  2624
   2,  1879,  1881,   125,   535,  2627,  2626,  2625,  2629,  2628,  2630
   3,  1879,  1644,  1881,   535,  2632,  2631,  2627,  2629,  2633,  2628
   4,  1879,  1880,  1882,   536,  2621,  2635,  2634,  2637,  2636,  2638
   5,    93,  1879,  1592,  1618,  2640,  2619,  2639,  2641,  2623,  2624
   6,  1879,    92,  1618,    93,  2643,  2642,  2623,  2640,  2644,  2641
   7,  1879,  1882,  1644,   535,  2634,  2645,  2632,  2629,  2646,  2633
   8,  1883,    95,  1884,  1566,  2649,  2648,  2647,  2651,  2650,  2652
   9,  1883,  1885,   539,   121,  2655,  2654,  2653,  2657,  2656,  2658
  10,  1883,  1886,  1540,  1887,  2661,  2660,  2659,  2663,  2662,  2664
  11,  1883,  1888,   538,  1887,  2667,  2666,  2665,  2663,  2668,  2669
  12,  1883,   122,  1884,     9,  2671,  2670,  2647,  2673,  2672,  2674
  13,  1883,   121,   122,     9,  2657,  2675,  2671,  2673,  2676,  2672
  14,  1889,  1332,   104,   103,  2679,  2678,  2677,  2681,  2680,  2682
  15,  1889,   113,  1890,   547,  2685,  2684,  2683,  2687,  2686,  2688
  16,  1889,  1891,   547,  1892,  2690,  2689,  2687,  2692,  2691,  2693
  17,  1889,  1893,   114,   546,  2696,  2695,  2694,  2698,  2697,  2699
  18,  1889,     6,   113,   114,  2701,  2700,  2685,  2694,  2702,  2703
  19,  1894,  1895,   165,  1202,  2706,  2705,  2704,  2708,  2707,  2709
  20,  1894,  1895,  1896,  1197,  2706,  2711,  2710,  2713,  2712,  2714
** ... 9024 like lines cut
*Element, type=B31
9045,   5, 291
9046, 291, 292
9047, 292, 293
9048, 293, 294
9049, 294, 295
9050, 295, 296
9051, 296, 297
9052, 297, 298
9053, 298, 299
9054, 299, 300
9055, 300, 301
9056, 301, 302
9057, 302, 303
9058, 303, 304
9059, 304, 305
9060, 305, 306
9061, 306, 307
9062, 307, 308
9063, 308, 309
9064, 309, 310
** ... 223 like lines cut
*Nset, nset=Set-1
     1,     2,     3,     4,     5,     6,     7,     8,     9,    10,    11,    12,    13,    14,    15,    16
    17,    18,    19,    20,    21,    22,    23,    24,    25,    26,    31,    32,    33,    34,    35,    36
    37,    38,    39,    40,    41,    42,    43,    44,    45,    46,    47,    48,    49,    50,    51,    52
    53,    54,    55,    56,    57,    58,    59,    60,    61,    62,    63,    64,    65,    66,    67,    68
    69,    70,    71,    72,    73,    74,    75,    76,    77,    78,    79,    80,    81,    82,    83,    84
    85,    86,    87,    88,    89,    90,    91,    92,    93,    94,    95,    96,    97,    98,    99,   100
   101,   102,   103,   104,   105,   106,   107,   108,   109,   110,   111,   112,   113,   114,   115,   116
   117,   118,   119,   120,   121,   122,   123,   124,   125,   126,   127,   128,   129,   130,   131,   132
   133,   134,   135,   136,   137,   138,   139,   140,   141,   142,   143,   144,   145,   146,   147,   148
   149,   150,   151,   152,   153,   154,   155,   156,   157,   158,   159,   160,   161,   162,   163,   164
   165,   166,   167,   168,   169,   170,   171,   172,   173,   174,   175,   176,   177,   178,   179,   180
   181,   182,   183,   184,   185,   186,   187,   188,   189,   190,   191,   192,   193,   194,   195,   196
   197,   198,   199,   200,   201,   202,   203,   204,   205,   206,   207,   208,   209,   210,   211,   212
   213,   214,   215,   216,   217,   218,   219,   220,   221,   222,   223,   224,   225,   226,   227,   228
   229,   230,   231,   232,   233,   234,   235,   236,   237,   238,   291,   292,   293,   294,   295,   296
   297,   298,   299,   300,   301,   302,   303,   304,   305,   306,   307,   308,   309,   310,   311,   312
   313,   314,   315,   316,   317,   318,   319,   320,   321,   322,   323,   324,   325,   326,   327,   328
   329,   330,   331,   332,   333,   334,   335,   336,   337,   338,   339,   340,   341,   342,   343,   344
   345,   346,   347,   348,   349,   350,   351,   352,   353,   354,   355,   356,   357,   358,   359,   360
   361,   362,   363,   364,   365,   366,   367,   368,   369,   370,   371,   372,   373,   374,   375,   376
** ... 927 like lines cut
*Elset, elset=Set-1
    1,    2,    3,    4,    5,    6,    7,    8,    9,   10,   11,   12,   13,   14,   15,   16
   17,   18,   19,   20,   21,   22,   23,   24,   25,   26,   27,   28,   29,   30,   31,   32
   33,   34,   35,   36,   37,   38,   39,   40,   41,   42,   43,   44,   45,   46,   47,   48
   49,   50,   51,   52,   53,   54,   55,   56,   57,   58,   59,   60,   61,   62,   63,   64
   65,   66,   67,   68,   69,   70,   71,   72,   73,   74,   75,   76,   77,   78,   79,   80
   81,   82,   83,   84,   85,   86,   87,   88,   89,   90,   91,   92,   93,   94,   95,   96
   97,   98,   99,  100,  101,  102,  103,  104,  105,  106,  107,  108,  109,  110,  111,  112
  113,  114,  115,  116,  117,  118,  119,  120,  121,  122,  123,  124,  125,  126,  127,  128
  129,  130,  131,  132,  133,  134,  135,  136,  137,  138,  139,  140,  141,  142,  143,  144
  145,  146,  147,  148,  149,  150,  151,  152,  153,  154,  155,  156,  157,  158,  159,  160
  161,  162,  163,  164,  165,  166,  167,  168,  169,  170,  171,  172,  173,  174,  175,  176
  177,  178,  179,  180,  181,  182,  183,  184,  185,  186,  187,  188,  189,  190,  191,  192
  193,  194,  195,  196,  197,  198,  199,  200,  201,  202,  203,  204,  205,  206,  207,  208
  209,  210,  211,  212,  213,  214,  215,  216,  217,  218,  219,  220,  221,  222,  223,  224
  225,  226,  227,  228,  229,  230,  231,  232,  233,  234,  235,  236,  237,  238,  239,  240
  241,  242,  243,  244,  245,  246,  247,  248,  249,  250,  251,  252,  253,  254,  255,  256
  257,  258,  259,  260,  261,  262,  263,  264,  265,  266,  267,  268,  269,  270,  271,  272
  273,  274,  275,  276,  277,  278,  279,  280,  281,  282,  283,  284,  285,  286,  287,  288
  289,  290,  291,  292,  293,  294,  295,  296,  297,  298,  299,  300,  301,  302,  303,  304
  305,  306,  307,  308,  309,  310,  311,  312,  313,  314,  315,  316,  317,  318,  319,  320
** ... 541 like lines cut
*Nset, nset=Set-2
   5,   6,   7,   8,   9,  10,  11,  12,  13,  17,  18,  19,  20,  21,  22,  23
  24,  25, 291, 292, 293, 294, 295, 296, 297, 298, 299, 300, 301, 302, 303, 304
 305, 306, 307, 308, 309, 310, 311, 312, 313, 314, 315, 316, 317, 318, 319, 320
 321, 322, 323, 324, 325, 326, 327, 328, 329, 330, 331, 332, 333, 334, 335, 336
 337, 338, 339, 340, 341, 342, 343, 344, 345, 346, 347, 348, 349, 350, 351, 352
 353, 354, 355, 356, 357, 358, 359, 360, 361, 362, 363, 364, 365, 366, 367, 368
 369, 370, 371, 372, 373, 374, 375, 376, 377, 378, 379, 380, 381, 382, 383, 384
 385, 386, 387, 388, 389, 390, 391, 392, 393, 394, 395, 396, 397, 398, 399, 400
 401, 402, 403, 404, 405, 406, 407, 408, 409, 410, 411, 412, 413, 414, 415, 416
 417, 418, 419, 420, 421, 422, 423, 424, 425, 426, 427, 428, 429, 430, 431, 432
 433, 434, 435, 436, 437, 438, 439, 440, 441, 442, 443, 444, 445, 446, 447, 448
 449, 450, 451, 452, 453, 454, 455, 456, 457, 458, 459, 460, 461, 462, 463, 464
 465, 466, 467, 468, 469, 470, 471, 472, 473, 474, 475, 476, 477, 478, 479, 480
 481, 482, 483, 484, 485, 486, 487, 488, 489, 490, 491, 492, 493, 494, 495, 496
 497, 498, 499, 500, 501, 502, 503, 504, 505, 506, 507, 508, 509, 510, 511, 512
 513, 514, 515, 516, 517, 518, 519, 520, 521, 522, 523, 524
*Elset, elset=Set-2, generate
 9045,  9287,     1
*Nset, nset=Set-5
   5,   6,   7,   8,   9,  10,  11,  12,  13,  17,  18,  19,  20,  21,  22,  23
  24,  25, 291, 292, 293, 294, 295, 296, 297, 298, 299, 300, 301, 302, 303, 304
 305, 306, 307, 308, 309, 310, 311, 312, 313, 314, 315, 316, 317, 318, 319, 320
 321, 322, 323, 324, 325, 326, 327, 328, 329, 330, 331, 332, 333, 334, 335, 336
 337, 338, 339, 340, 341, 342, 343, 344, 345, 346, 347, 348, 349, 350, 351, 352
 353, 354, 355, 356, 357, 358, 359, 360, 361, 362, 363, 364, 365, 366, 367, 368
 369, 370, 371, 372, 373, 374, 375, 376, 377, 378, 379, 380, 381, 382, 383, 384
 385, 386, 387, 388, 389, 390, 391, 392, 393, 394, 395, 396, 397, 398, 399, 400
 401, 402, 403, 404, 405, 406, 407, 408, 409, 410, 411, 412, 413, 414, 415, 416
 417, 418, 419, 420, 421, 422, 423, 424, 425, 426, 427, 428, 429, 430, 431, 432
 433, 434, 435, 436, 437, 438, 439, 440, 441, 442, 443, 444, 445, 446, 447, 448
 449, 450, 451, 452, 453, 454, 455, 456, 457, 458, 459, 460, 461, 462, 463, 464
 465, 466, 467, 468, 469, 470, 471, 472, 473, 474, 475, 476, 477, 478, 479, 480
 481, 482, 483, 484, 485, 486, 487, 488, 489, 490, 491, 492, 493, 494, 495, 496
 497, 498, 499, 500, 501, 502, 503, 504, 505, 506, 507, 508, 509, 510, 511, 512
 513, 514, 515, 516, 517, 518, 519, 520, 521, 522, 523, 524
*Elset, elset=Set-5, generate
 9045,  9287,     1
*Nset, nset=Set-6
   5,   6,   7,   8,   9,  10,  11,  12,  13,  17,  18,  19,  20,  21,  22,  23
  24,  25, 291, 292, 293, 294, 295, 296, 297, 298, 299, 300, 301, 302, 303, 304
 305, 306, 307, 308, 309, 310, 311, 312, 313, 314, 315, 316, 317, 318, 319, 320
 321, 322, 323, 324, 325, 326, 327, 328, 329, 330, 331, 332, 333, 334, 335, 336
 337, 338, 339, 340, 341, 342, 343, 344, 345, 346, 347, 348, 349, 350, 351, 352
 353, 354, 355, 356, 357, 358, 359, 360, 361, 362, 363, 364, 365, 366, 367, 368
 369, 370, 371, 372, 373, 374, 375, 376, 377, 378, 379, 380, 381, 382, 383, 384
 385, 386, 387, 388, 389, 390, 391, 392, 393, 394, 395, 396, 397, 398, 399, 400
 401, 402, 403, 404, 405, 406, 407, 408, 409, 410, 411, 412, 413, 414, 415, 416
 417, 418, 419, 420, 421, 422, 423, 424, 425, 426, 427, 428, 429, 430, 431, 432
 433, 434, 435, 436, 437, 438, 439, 440, 441, 442, 443, 444, 445, 446, 447, 448
 449, 450, 451, 452, 453, 454, 455, 456, 457, 458, 459, 460, 461, 462, 463, 464
 465, 466, 467, 468, 469, 470, 471, 472, 473, 474, 475, 476, 477, 478, 479, 480
 481, 482, 483, 484, 485, 486, 487, 488, 489, 490, 491, 492, 493, 494, 495, 496
 497, 498, 499, 500, 501, 502, 503, 504, 505, 506, 507, 508, 509, 510, 511, 512
 513, 514, 515, 516, 517, 518, 519, 520, 521, 522, 523, 524
*Elset, elset=Set-6, generate
 9045,  9287,     1
*Nset, nset=Set-7
    14,    15,    16,    26,    27,    28,    29,    30,   135,   136,   137,   138,   139,   140,   141,   142
   143,   144,   145,   146,   147,   148,   149,   150,   151,   152,   153,   154,   155,   156,   157,   158
   159,   160,   213,   214,   215,   216,   217,   218,   219,   220,   221,   222,   223,   224,   225,   226
   227,   228,   229,   230,   231,   232,   233,   234,   235,   236,   237,   238,   239,   240,   241,   242
   243,   244,   245,   246,   247,   248,   249,   250,   251,   252,   253,   254,   255,   256,   257,   258
   259,   260,   261,   262,   263,   264,   265,   266,   267,   268,   269,   270,   271,   272,   273,   274
   275,   276,   277,   278,   279,   280,   281,   282,   283,   284,   285,   286,   287,   288,   289,   290
  2592,  2593,  2594,  2595,  2596,  2597,  2598,  2599,  2600,  2601,  2602,  2603,  2604,  2605,  2606,  2607
  2608,  2609,  2610,  2611,  2612,  2613,  2614,  2615,  2616,  2617,  2618,  2893,  2895,  2896,  2897,  2898
  2907,  3392,  3394,  3396,  3638,  3641,  3653,  3657,  3665,  3666,  3785,  3791,  3907,  3918,  3920,  3928
  3940,  3953,  4285,  4286,  4287,  4409,  4410,  4411,  4565,  4568,  4572,  4573,  4574,  5333,  5335,  5344
  5700,  7690,  7691,  7700,  7963,  7964,  8124,  8152,  8280,  8281,  8375,  8376,  8404,  8406,  8612,  9166
  9176,  9177,  9178,  9276, 10698, 10699, 10700, 10783, 10784, 10787, 11776, 11926, 11930, 11932, 11936, 12310
 12311, 12313, 12314, 12425, 12426, 12428, 12429, 12980, 13126, 13258, 13259, 13375, 13393, 13397, 13398, 13590
 13691, 13909, 13910, 13916, 14017, 14018, 14019, 14247, 14313, 14389, 14447, 14451, 14496, 14667, 14669, 14701
 14751, 14789, 14790, 14913, 15025, 15051, 15074, 15083, 15225, 15226, 15227, 15228, 15229, 15230, 15231, 15232
 15233, 15234, 15235, 15236, 15237, 15238, 15239, 15240, 15241, 15242, 15243, 15244, 15245, 15246, 15247, 15248
 15249, 15250, 15251, 15252, 15253, 15254, 15255, 15256, 15257, 15258, 15259, 15260, 15261, 15262, 15263, 15264
 15265, 15266, 15267, 15268, 15269, 15270, 15271, 15272, 15273, 15274, 15275, 15276, 15277, 15278, 15279, 15280
 15281, 15282, 15283, 15284, 15285, 15286, 15287, 15288, 15289, 15290, 15291, 15292, 15293, 15294, 15295, 15296
** ... 25 like lines cut
*Elset, elset=Set-7, generate
 8721,  9044,     1
*Nset, nset=Set-8
     1,     2,     3,     4,     5,     6,     7,     8,     9,    10,    11,    12,    13,    14,    15,    16
    17,    18,    19,    20,    21,    22,    23,    24,    25,    26,    31,    32,    33,    34,    35,    36
    37,    38,    39,    40,    41,    42,    43,    44,    45,    46,    47,    48,    49,    50,    51,    52
    53,    54,    55,    56,    57,    58,    59,    60,    61,    62,    63,    64,    65,    66,    67,    68
    69,    70,    71,    72,    73,    74,    75,    76,    77,    78,    79,    80,    81,    82,    83,    84
    85,    86,    87,    88,    89,    90,    91,    92,    93,    94,    95,    96,    97,    98,    99,   100
   101,   102,   103,   104,   105,   106,   107,   108,   109,   110,   111,   112,   113,   114,   115,   116
   117,   118,   119,   120,   121,   122,   123,   124,   125,   126,   127,   128,   129,   130,   131,   132
   133,   134,   135,   136,   137,   138,   139,   140,   141,   142,   143,   144,   145,   146,   147,   148
   149,   150,   151,   152,   153,   154,   155,   156,   157,   158,   159,   160,   161,   162,   163,   164
   165,   166,   167,   168,   169,   170,   171,   172,   173,   174,   175,   176,   177,   178,   179,   180
   181,   182,   183,   184,   185,   186,   187,   188,   189,   190,   191,   192,   193,   194,   195,   196
   197,   198,   199,   200,   201,   202,   203,   204,   205,   206,   207,   208,   209,   210,   211,   212
   213,   214,   215,   216,   217,   218,   219,   220,   221,   222,   223,   224,   225,   226,   227,   228
   229,   230,   231,   232,   233,   234,   235,   236,   237,   238,   525,   526,   527,   528,   529,   530
   531,   532,   533,   534,   535,   536,   537,   538,   539,   540,   541,   542,   543,   544,   545,   546
   547,   548,   549,   550,   551,   552,   553,   554,   555,   556,   557,   558,   559,   560,   561,   562
   563,   564,   565,   566,   567,   568,   569,   570,   571,   572,   573,   574,   575,   576,   577,   578
   579,   580,   581,   582,   583,   584,   585,   586,   587,   588,   589,   590,   591,   592,   593,   594
   595,   596,   597,   598,   599,   600,   601,   602,   603,   604,   605,   606,   607,   608,   609,   610
** ... 912 like lines cut
*Elset, elset=Set-8, generate
    1,  8720,     1
** Section: Cyto
*Solid Section, elset=Set-8, material=Cytoplasm
,
** Section: Cortex
*Solid Section, elset=Set-7, material=Actin_Cortex
,
** Section: ER  Profile: ER_Square
*Beam Section, elset=Set-5, material=ER, temperature=GRADIENTS, section=RECT
0.0781, 0.1
0.,0.,-1.
*End Part
**  
**
** ASSEMBLY
**
*Assembly, name=Assembly
**  
*Instance, name=Parallel_ER-1, part=Parallel_ER
*End Instance
**  
*Nset, nset=Parallel_ERs, instance=Parallel_ER-1
   5,   6,   7,   8,   9,  10,  11,  12,  13,  17,  18,  19,  20,  21,  22,  23
  24,  25, 291, 292, 293, 294, 295, 296, 297, 298, 299, 300, 301, 302, 303, 304
 305, 306, 307, 308, 309, 310, 311, 312, 313, 314, 315, 316, 317, 318, 319, 320
 321, 322, 323, 324, 325, 326, 327, 328, 329, 330, 331, 332, 333, 334, 335, 336
 337, 338, 339, 340, 341, 342, 343, 344, 345, 346, 347, 348, 349, 350, 351, 352
 353, 354, 355, 356, 357, 358, 359, 360, 361, 362, 363, 364, 365, 366, 367, 368
 369, 370, 371, 372, 373, 374, 375, 376, 377, 378, 379, 380, 381, 382, 383, 384
 385, 386, 387, 388, 389, 390, 391, 392, 393, 394, 395, 396, 397, 398, 399, 400
 401, 402, 403, 404, 405, 406, 407, 408, 409, 410, 411, 412, 413, 414, 415, 416
 417, 418, 419, 420, 421, 422, 423, 424, 425, 426, 427, 428, 429, 430, 431, 432
 433, 434, 435, 436, 437, 438, 439, 440, 441, 442, 443, 444, 445, 446, 447, 448
 449, 450, 451, 452, 453, 454, 455, 456, 457, 458, 459, 460, 461, 462, 463, 464
 465, 466, 467, 468, 469, 470, 471, 472, 473, 474, 475, 476, 477, 478, 479, 480
 481, 482, 483, 484, 485, 486, 487, 488, 489, 490, 491, 492, 493, 494, 495, 496
 497, 498, 499, 500, 501, 502, 503, 504, 505, 506, 507, 508, 509, 510, 511, 512
 513, 514, 515, 516, 517, 518, 519, 520, 521, 522, 523, 524
*Elset, elset=Parallel_ERs, instance=Parallel_ER-1, generate
 9045,  9287,     1
*Nset, nset=Set-35, instance=Parallel_ER-1
     1,     2,     3,     4,    31,    32,    33,    34,    35,    36,    37,    38,    39,    40,    41,    42
    43,    44,    45,    46,    47,    48,    49,    50,    51,    52,    53,    54,    55,    56,    57,    58
    59,    60,    61,    62,    63,    64,    65,    66,    67,    68,    69,    70,    71,    72,    73,    74
    75,    76,    77,    78,    79,    80,    81,    82,  2865,  2868,  2872,  3122,  3125,  3263,  3273,  3344
  3353,  3406,  3407,  3409,  3431,  3433,  3435,  3472,  3473,  3475,  3482,  3805,  3807,  3879,  3968,  3971
  3972,  3973,  4042,  4058,  4161,  4169,  4170,  4584,  4586,  5875,  5876,  5877,  6165,  6167,  6168,  7338
  7587,  7588,  7590,  7997,  8010,  8087,  8089,  8091,  8092,  9003,  9004,  9061,  9062,  9277,  9621, 10158
 10159, 10162, 10917, 10935, 10937, 10939, 11063, 11065, 11396, 11397, 11431, 11435, 11446, 11447, 11482, 11502
 11506, 11509, 11510, 11517, 11518, 11572, 11598, 11602, 11603, 11679, 11680, 11686, 11705, 11706, 11707, 11747
 11771, 11773, 11809, 11846, 11916, 11917, 11988, 11989, 12009, 12093, 12166, 12167, 12597, 12598, 13268, 13609
 13695, 14347, 14571, 14802, 14803
*Elset, elset=Set-35, instance=Parallel_ER-1
  186,  192,  204,  285,  327,  376,  810,  886, 1306, 1453, 1868, 2001, 2215, 2573, 2584, 2644
 2686, 2808, 2864, 2887, 2891, 2899, 2914, 2921, 2940, 2943, 2980, 3001, 3027, 3041, 3060, 3116
 3121, 3123, 3144, 3168, 3261, 3323, 3563, 3662, 4218, 4470, 4599, 4723, 4853, 4856, 5603, 5633
 5867, 6106, 6110, 6506, 6784, 6785
*Nset, nset=Set-36, instance=Parallel_ER-1
     2,     3,     5,     6,     7,     8,     9,    10,    11,    12,    13,    14,    15,    83,    84,    85
    86,    87,    88,    89,    90,    91,    92,    93,    94,    95,    96,    97,    98,    99,   100,   101
   102,   103,   104,   105,   106,   107,   108,   109,   110,   111,   112,   113,   114,   115,   116,   117
   118,   119,   120,   121,   122,   123,   124,   125,   126,   127,   128,   129,   130,   131,   132,   133
   134,   525,  2644,  2672,  2675,  2676,  2682,  2700,  2702,  2703,  2815,  2820,  2827,  2831,  2832,  2834
  2882,  2885,  2887,  2895,  2945,  2947,  2948,  2971,  2983,  2985,  2986,  3050,  3051,  3890,  3896,  3903
  4344,  4350,  4354,  4356,  4357,  4468,  4479,  4482,  4489,  4490,  4491,  4579,  4589,  4621,  4624,  4631
  4634,  4689,  4692,  4693,  4696,  4697,  6290,  6310,  6316,  6318,  6321,  8137,  9525,  9528,  9536,  9537
  9538,  9539, 10275, 10362, 10705, 11224, 11230, 11268, 11270, 11272, 11577, 11990, 12059, 12060, 12062, 12087
 12092, 12096, 12098, 12115, 12166, 12184, 12185, 12213, 12214, 12215, 12250, 12251, 12252, 12258, 12259, 12270
 12271, 12272, 12304, 12316, 12317, 12328, 12348, 12366, 12368, 12369, 12370, 12377, 12415, 12430, 12431, 12432
 12485, 12487, 12488, 12497, 12553, 12569, 12575, 12601, 12603, 12604, 12662, 12712, 12718, 12721, 12734, 12755
 12758, 12761, 12770, 12775, 12778, 12782, 12784, 12787, 12803, 12805, 12813, 12827, 14041
*Elset, elset=Set-36, instance=Parallel_ER-1
   13,   18,   48,   61,   77,   86,  419,  450,  509,  512,  922, 1468, 1970, 2748, 3154, 3192
 3212, 3218, 3232, 3271, 3273, 3294, 3318, 3325, 3339, 3340, 3360, 3371, 3378, 3389, 3397, 3399
 3429, 3433, 3436, 3438, 3441, 3471, 3473, 3480, 3499, 3534, 3542, 3544, 3568, 3579, 3588, 3616
 3659, 3661, 3670, 3672, 3679, 3692, 3695, 3700, 3703, 3712, 3716, 3720, 3721, 3723, 3727, 3731
 3738, 3743, 3758, 3778, 3842, 5149, 5573, 5939, 7111, 8286
*Nset, nset=Set-37, instance=Parallel_ER-1
     1,     4,    16,    17,    18,    19,    20,    21,    22,    23,    24,    25,    26,   161,   162,   163
   164,   165,   166,   167,   168,   169,   170,   171,   172,   173,   174,   175,   176,   177,   178,   179
   180,   181,   182,   183,   184,   185,   186,   187,   188,   189,   190,   191,   192,   193,   194,   195
   196,   197,   198,   199,   200,   201,   202,   203,   204,   205,   206,   207,   208,   209,   210,   211
   212,  1202,  2709,  2717,  2728,  2731,  2733,  2735,  2739,  2759,  2763,  2764,  2768,  2777,  2782,  2787
  2788,  2790,  2859,  2860,  2862,  2864,  2865,  2913,  3614,  3617,  4415,  4425,  4431,  4495,  4509,  4511
  4602,  4609,  4763,  4767,  5885,  5887,  5889,  5892,  7637,  8224,  8226,  8228,  8237,  8238,  8239, 10445
 10457, 10458, 10460, 10466, 10706, 10707, 10708, 10714, 11118, 11120, 11121, 11341, 11378, 11418, 12467, 12469
 12617, 12618, 12726, 13716, 13720, 13962, 13971, 13972, 13973, 13975, 14317, 14327, 14328, 14427, 14485, 14487
 14509, 14556, 14620, 14669, 14710, 14711, 14759, 14798, 14799, 14812, 14813, 14815, 14823, 14824, 14857, 14865
 14872, 14875, 14878, 14884, 14885, 14889, 14891, 14894, 14895, 14899, 14900, 14904, 14925, 14926, 14933, 14936
 14937, 14938, 14949, 14950, 14951, 14952, 14954, 14962, 14963, 14966, 14967, 14969, 14972, 14973, 14974, 14982
 14985, 14987, 14990, 14995, 14996, 14997, 15003, 15004, 15011, 15016, 15095, 15103, 15121
*Elset, elset=Set-37, instance=Parallel_ER-1
   25,   31,   37,   55,   56,  814, 1504, 1508, 2343, 2475, 2671, 2800, 3580, 5051, 5054, 5574
 5795, 5931, 6007, 6242, 6523, 6776, 6820, 6833, 6972, 6973, 6993, 7008, 7011, 7084, 7097, 7117
 7124, 7163, 7166, 7172, 7231, 7235, 7245, 7259, 7266, 7273, 7275, 7280, 7283, 7311, 7323, 7326
 7345, 7356, 7357, 7379, 7396, 7402, 7406, 7407, 7408, 7422, 7458, 7459, 7469, 7471, 7758, 7772
 7825, 7826, 7852, 7973, 7979, 8119, 8120, 8423, 8527, 8535
*Nset, nset=Set-38, instance=Parallel_ER-1
     2,     3,     5,     6,     7,     8,     9,    10,    11,    12,    13,    14,    15,    27,    28,    83
    84,    85,    86,    87,    88,    89,    90,    91,    92,    93,    94,    95,    96,    97,    98,    99
   100,   101,   102,   103,   104,   105,   106,   107,   108,   109,   110,   111,   112,   113,   114,   115
   116,   117,   118,   119,   120,   121,   122,   123,   124,   125,   126,   127,   128,   129,   130,   131
   132,   133,   134,   525,  2644,  2672,  2675,  2676,  2682,  2700,  2702,  2703,  2815,  2820,  2827,  2831
  2832,  2834,  2882,  2885,  2887,  2895,  2945,  2947,  2948,  2971,  2983,  2985,  2986,  3050,  3051,  3890
  3896,  3903,  4344,  4350,  4354,  4356,  4357,  4468,  4479,  4482,  4489,  4490,  4491,  4579,  4589,  4621
  4624,  4631,  4634,  4689,  4692,  4693,  4696,  4697,  6290,  6310,  6316,  6318,  6321,  8137,  9525,  9528
  9536,  9537,  9538,  9539, 10275, 10362, 10705, 11224, 11230, 11268, 11270, 11272, 11577, 11990, 12059, 12060
 12062, 12087, 12092, 12096, 12098, 12115, 12166, 12184, 12185, 12213, 12214, 12215, 12250, 12251, 12252, 12258
 12259, 12270, 12271, 12272, 12304, 12316, 12317, 12328, 12348, 12366, 12368, 12369, 12370, 12377, 12415, 12430
 12431, 12432, 12485, 12487, 12488, 12497, 12553, 12569, 12575, 12601, 12603, 12604, 12662, 12712, 12718, 12721
 12734, 12755, 12758, 12761, 12770, 12775, 12778, 12782, 12784, 12787, 12803, 12805, 12813, 12827, 14041, 15600
 15604, 15684, 15686
*Elset, elset=Set-38, instance=Parallel_ER-1
   13,   18,   48,   61,   77,   86,  419,  450,  509,  512,  922, 1468, 1970, 2748, 3154, 3192
 3212, 3218, 3232, 3271, 3273, 3294, 3318, 3325, 3339, 3340, 3360, 3371, 3378, 3389, 3397, 3399
 3429, 3433, 3436, 3438, 3441, 3471, 3473, 3480, 3499, 3534, 3542, 3544, 3568, 3579, 3588, 3616
 3659, 3661, 3670, 3672, 3679, 3692, 3695, 3700, 3703, 3712, 3716, 3720, 3721, 3723, 3727, 3731
 3738, 3743, 3758, 3778, 3842, 5149, 5573, 5939, 7111, 8286, 9026, 9028
*Nset, nset=Set-39, instance=Parallel_ER-1
     1,     4,    16,    17,    18,    19,    20,    21,    22,    23,    24,    25,    26,    29,    30,   161
   162,   163,   164,   165,   166,   167,   168,   169,   170,   171,   172,   173,   174,   175,   176,   177
   178,   179,   180,   181,   182,   183,   184,   185,   186,   187,   188,   189,   190,   191,   192,   193
   194,   195,   196,   197,   198,   199,   200,   201,   202,   203,   204,   205,   206,   207,   208,   209
   210,   211,   212,  1202,  2709,  2717,  2728,  2731,  2733,  2735,  2739,  2759,  2763,  2764,  2768,  2777
  2782,  2787,  2788,  2790,  2859,  2860,  2862,  2864,  2865,  2913,  3614,  3617,  4415,  4425,  4431,  4495
  4509,  4511,  4602,  4609,  4763,  4767,  5885,  5887,  5889,  5892,  7637,  8224,  8226,  8228,  8237,  8238
  8239, 10445, 10457, 10458, 10460, 10466, 10706, 10707, 10708, 10714, 11118, 11120, 11121, 11341, 11378, 11418
 12467, 12469, 12617, 12618, 12726, 13716, 13720, 13962, 13971, 13972, 13973, 13975, 14317, 14327, 14328, 14427
 14485, 14487, 14509, 14556, 14620, 14669, 14710, 14711, 14759, 14798, 14799, 14812, 14813, 14815, 14823, 14824
 14857, 14865, 14872, 14875, 14878, 14884, 14885, 14889, 14891, 14894, 14895, 14899, 14900, 14904, 14925, 14926
 14933, 14936, 14937, 14938, 14949, 14950, 14951, 14952, 14954, 14962, 14963, 14966, 14967, 14969, 14972, 14973
 14974, 14982, 14985, 14987, 14990, 14995, 14996, 14997, 15003, 15004, 15011, 15016, 15095, 15103, 15121, 15534
 15536, 15538, 15545
*Elset, elset=Set-39, instance=Parallel_ER-1
   25,   31,   37,   55,   56,  814, 1504, 1508, 2343, 2475, 2671, 2800, 3580, 5051, 5054, 5574
 5795, 5931, 6007, 6242, 6523, 6776, 6820, 6833, 6972, 6973, 6993, 7008, 7011, 7084, 7097, 7117
 7124, 7163, 7166, 7172, 7231, 7235, 7245, 7259, 7266, 7273, 7275, 7280, 7283, 7311, 7323, 7326
 7345, 7356, 7357, 7379, 7396, 7402, 7406, 7407, 7408, 7422, 7458, 7459, 7469, 7471, 7758, 7772
 7825, 7826, 7852, 7973, 7979, 8119, 8120, 8423, 8527, 8535, 8831, 8957
*Nset, nset=Set-40, instance=Parallel_ER-1
     1,     2,     3,     4,     5,     6,     7,     8,     9,    10,    11,    12,    13,    14,    15,    16
    17,    18,    19,    20,    21,    22,    23,    24,    25,    26,    27,    28,    29,    30,    83,    84
    85,    86,    87,    88,    89,    90,    91,    92,    93,    94,    95,    96,    97,    98,    99,   100
   101,   102,   103,   104,   105,   106,   107,   108,   109,   110,   111,   112,   113,   114,   115,   116
   117,   118,   119,   120,   121,   122,   123,   124,   125,   126,   127,   128,   129,   130,   131,   132
   133,   134,   161,   162,   163,   164,   165,   166,   167,   168,   169,   170,   171,   172,   173,   174
   175,   176,   177,   178,   179,   180,   181,   182,   183,   184,   185,   186,   187,   188,   189,   190
   191,   192,   193,   194,   195,   196,   197,   198,   199,   200,   201,   202,   203,   204,   205,   206
   207,   208,   209,   210,   211,   212,   525,  1202,  2644,  2672,  2675,  2676,  2682,  2700,  2702,  2703
  2709,  2717,  2728,  2731,  2733,  2735,  2739,  2759,  2763,  2764,  2768,  2777,  2782,  2787,  2788,  2790
  2815,  2820,  2827,  2831,  2832,  2834,  2859,  2860,  2862,  2864,  2865,  2882,  2885,  2887,  2895,  2913
  2945,  2947,  2948,  2971,  2983,  2985,  2986,  3050,  3051,  3614,  3617,  3890,  3896,  3903,  4344,  4350
  4354,  4356,  4357,  4415,  4425,  4431,  4468,  4479,  4482,  4489,  4490,  4491,  4495,  4509,  4511,  4579
  4589,  4602,  4609,  4621,  4624,  4631,  4634,  4689,  4692,  4693,  4696,  4697,  4763,  4767,  5885,  5887
  5889,  5892,  6290,  6310,  6316,  6318,  6321,  7637,  8137,  8224,  8226,  8228,  8237,  8238,  8239,  9525
  9528,  9536,  9537,  9538,  9539, 10275, 10362, 10445, 10457, 10458, 10460, 10466, 10705, 10706, 10707, 10708
 10714, 11118, 11120, 11121, 11224, 11230, 11268, 11270, 11272, 11341, 11378, 11418, 11577, 11990, 12059, 12060
 12062, 12087, 12092, 12096, 12098, 12115, 12166, 12184, 12185, 12213, 12214, 12215, 12250, 12251, 12252, 12258
 12259, 12270, 12271, 12272, 12304, 12316, 12317, 12328, 12348, 12366, 12368, 12369, 12370, 12377, 12415, 12430
 12431, 12432, 12467, 12469, 12485, 12487, 12488, 12497, 12553, 12569, 12575, 12601, 12603, 12604, 12617, 12618
** ... 7 like lines cut
*Elset, elset=Set-40, instance=Parallel_ER-1
   13,   18,   25,   31,   37,   48,   55,   56,   61,   77,   86,  419,  450,  509,  512,  814
  922, 1468, 1504, 1508, 1970, 2343, 2475, 2671, 2748, 2800, 3154, 3192, 3212, 3218, 3232, 3271
 3273, 3294, 3318, 3325, 3339, 3340, 3360, 3371, 3378, 3389, 3397, 3399, 3429, 3433, 3436, 3438
 3441, 3471, 3473, 3480, 3499, 3534, 3542, 3544, 3568, 3579, 3580, 3588, 3616, 3659, 3661, 3670
 3672, 3679, 3692, 3695, 3700, 3703, 3712, 3716, 3720, 3721, 3723, 3727, 3731, 3738, 3743, 3758
 3778, 3842, 5051, 5054, 5149, 5573, 5574, 5795, 5931, 5939, 6007, 6242, 6523, 6776, 6820, 6833
 6972, 6973, 6993, 7008, 7011, 7084, 7097, 7111, 7117, 7124, 7163, 7166, 7172, 7231, 7235, 7245
 7259, 7266, 7273, 7275, 7280, 7283, 7311, 7323, 7326, 7345, 7356, 7357, 7379, 7396, 7402, 7406
 7407, 7408, 7422, 7458, 7459, 7469, 7471, 7758, 7772, 7825, 7826, 7852, 7973, 7979, 8119, 8120
 8286, 8423, 8527, 8535, 8831, 8957, 9026, 9028
*End Assembly
** 
** MATERIALS
** 
*Material, name=Actin_Cortex
*Depvar
     46,
*User Material, constants=6
 0.073,  0.45,    1., 0.001,   0.1,    1.
*Material, name=Cytoplasm
*Elastic
 0.073, 0.45
*Material, name=ER
*Elastic
 19.3, 0.45
** 
** BOUNDARY CONDITIONS
** 
** Name: BC-1 Type: Symmetry/Antisymmetry/Encastre
*Boundary
Set-35, ENCASTRE
** Name: BC-2 Type: Symmetry/Antisymmetry/Encastre
*Boundary
Set-40, YSYMM
** ----------------------------------------------------------------
** 
** STEP: Step-1
** 
*Step, name=Step-1, nlgeom=NO
*Static
0.1, 1., 1e-06, 1.
** 
** OUTPUT REQUESTS
** 
*Restart, write, frequency=0
** 
** FIELD OUTPUT: F-Output-1
** 
*Output, field
*Node Output
CF, RF, U
*Element Output, directions=YES
ELEDEN, LE, PE, PEEQ, PEMAG, S
*Contact Output
CDISP, CSTRESS
** 
** HISTORY OUTPUT: H-Output-1
** 
*Output, history, variable=PRESELECT
** 
** HISTORY OUTPUT: H-Output-2
** 
*Output, history
*Energy Output, elset=Parallel_ERs, variable=PRESELECT
*End Step
