*Heading
** Job name: Negative_R_5_Parallel_Contraction Model name: Model-1
** Generated by: Abaqus/CAE 2021.HF6
*Preprint, echo=NO, model=NO, history=NO, contact=NO
**
** PARTS
**
*Part, name=Neg_R_5
*Node
      1,         19.5,          25.,  0.550000012
      2,          20.,          25.,  0.550000012
      3,          20.,          25., -0.449999988
      4,         19.5,          25., -0.449999988
      5,          20.,   20.1522083, 0.0500000007
      6,          20.,   20.6275158, 0.0500000007
      7,          20.,   21.4923019, 0.0500000007
      8,          20.,   22.8960056, 0.0500000007
      9,          20.,          18., 0.0500000007
     10,          20.,          16., 0.0500000007
     11,          20.,          14., 0.0500000007
     12,          20.,          12., 0.0500000007
     13,          20.,          10., 0.0500000007
     14,          20.,           8., 0.0500000007
     15,          20.,           6., 0.0500000007
     16,          20.,           4., 0.0500000007
     17,          20.,           2., 0.0500000007
     18,          20.,          20.,  0.550000012
     19,          20.,           0.,  0.550000012
     20,          20.,           0., -0.449999988
** ... 18472 like lines cut
*Element, type=C3D10
    1,  2227,  2228,   933,   845,  3085,  3084,  3083,  3087,  3086,  3088
    2,  2227,  2228,  1698,  2229,  3085,  3090,  3089,  3092,  3091,  3093
    3,  2227,  2230,  2231,   938,  3096,  3095,  3094,  3098,  3097,  3099
    4,  2227,  2228,  2229,   933,  3085,  3091,  3092,  3083,  3084,  3100
    5,  2232,  2233,   883,  2234,  3103,  3102,  3101,  3105,  3104,  3106
    6,  2232,  1745,  2233,  2234,  3108,  3107,  3103,  3105,  3109,  3104
    7,  2232,  2235,  1745,  2236,  3111,  3110,  3108,  3113,  3112,  3114
    8,  2232,   883,  2235,  2236,  3101,  3115,  3111,  3113,  3116,  3112
    9,  2232,  2237,   804,   798,  3119,  3118,  3117,  3121,  3120,  3122
   10,  2232,  2234,   804,  2237,  3105,  3123,  3117,  3119,  3124,  3118
   11,  2238,  2239,  2240,  1848,  3127,  3126,  3125,  3129,  3128,  3130
   12,  2238,  2239,  1033,  2240,  3127,  3132,  3131,  3125,  3126,  3133
   13,  2238,  1776,  2241,  2242,  3136,  3135,  3134,  3138,  3137,  3139
   14,  2238,  2240,  2243,  1848,  3125,  3141,  3140,  3129,  3130,  3142
   15,  2238,  2243,  1776,  1848,  3140,  3143,  3136,  3129,  3142,  3144
   16,  2244,  2245,   945,  2246,  3147,  3146,  3145,  3149,  3148,  3150
   17,  2244,  2247,   967,  2248,  3153,  3152,  3151,  3155,  3154,  3156
   18,  2244,  1019,  2247,  2249,  3158,  3157,  3153,  3160,  3159,  3161
   19,  2244,  2247,  1636,  2249,  3153,  3163,  3162,  3160,  3161,  3164
   20,  2244,  1534,  2246,  1636,  3166,  3165,  3149,  3162,  3167,  3168
** ... 10643 like lines cut
*Element, type=B31
10664,  43, 351
10665, 351, 352
10666, 352, 353
10667, 353, 354
10668, 354, 355
10669, 355, 356
10670, 356, 357
10671, 357, 358
10672, 358, 359
10673, 359,   5
10674,  24, 360
10675, 360, 361
10676, 361, 362
10677, 362, 363
10678, 363, 364
10679, 364, 365
10680, 365, 366
10681, 366, 367
10682, 367, 368
10683, 368,  44
** ... 269 like lines cut
*Nset, nset=Set-1
   5,   6,   7,   8,   9,  10,  11,  12,  13,  14,  15,  16,  17,  24,  25,  26
  27,  28,  29,  30,  31,  32,  33,  34,  35,  36,  43,  44,  45,  46,  47,  48
  49,  50, 351, 352, 353, 354, 355, 356, 357, 358, 359, 360, 361, 362, 363, 364
 365, 366, 367, 368, 369, 370, 371, 372, 373, 374, 375, 376, 377, 378, 379, 380
 381, 382, 383, 384, 385, 386, 387, 388, 389, 390, 391, 392, 393, 394, 395, 396
 397, 398, 399, 400, 401, 402, 403, 404, 405, 406, 407, 408, 409, 410, 411, 412
 413, 414, 415, 416, 417, 418, 419, 420, 421, 422, 423, 424, 425, 426, 427, 428
 429, 430, 431, 432, 433, 434, 435, 436, 437, 438, 439, 440, 441, 442, 443, 444
 445, 446, 447, 448, 449, 450, 451, 452, 453, 454, 455, 456, 457, 458, 459, 460
 461, 462, 463, 464, 465, 466, 467, 468, 469, 470, 471, 472, 473, 474, 475, 476
 477, 478, 479, 480, 481, 482, 483, 484, 485, 486, 487, 488, 489, 490, 491, 492
 493, 494, 495, 496, 497, 498, 499, 500, 501, 502, 503, 504, 505, 506, 507, 508
 509, 510, 511, 512, 513, 514, 515, 516, 517, 518, 519, 520, 521, 522, 523, 524
 525, 526, 527, 528, 529, 530, 531, 532, 533, 534, 535, 536, 537, 538, 539, 540
 541, 542, 543, 544, 545, 546, 547, 548, 549, 550, 551, 552, 553, 554, 555, 556
 557, 558, 559, 560, 561, 562, 563, 564, 565, 566, 567, 568, 569, 570, 571, 572
 573, 574, 575, 576, 577, 578, 579, 580, 581, 582, 583, 584, 585, 586, 587, 588
 589, 590, 591, 592, 593, 594, 595, 596, 597, 598, 599, 600, 601, 602, 603, 604
 605, 606, 607, 608, 609, 610, 611, 612, 613, 614, 615, 616, 617, 618, 619, 620
 621, 622
*Elset, elset=Set-1, generate
 10664,  10952,      1
*Nset, nset=Set-2
   5,   6,   7,   8,   9,  10,  11,  12,  13,  14,  15,  16,  17,  24,  25,  26
  27,  28,  29,  30,  31,  32,  33,  34,  35,  36,  43,  44,  45,  46,  47,  48
  49,  50, 351, 352, 353, 354, 355, 356, 357, 358, 359, 360, 361, 362, 363, 364
 365, 366, 367, 368, 369, 370, 371, 372, 373, 374, 375, 376, 377, 378, 379, 380
 381, 382, 383, 384, 385, 386, 387, 388, 389, 390, 391, 392, 393, 394, 395, 396
 397, 398, 399, 400, 401, 402, 403, 404, 405, 406, 407, 408, 409, 410, 411, 412
 413, 414, 415, 416, 417, 418, 419, 420, 421, 422, 423, 424, 425, 426, 427, 428
 429, 430, 431, 432, 433, 434, 435, 436, 437, 438, 439, 440, 441, 442, 443, 444
 445, 446, 447, 448, 449, 450, 451, 452, 453, 454, 455, 456, 457, 458, 459, 460
 461, 462, 463, 464, 465, 466, 467, 468, 469, 470, 471, 472, 473, 474, 475, 476
 477, 478, 479, 480, 481, 482, 483, 484, 485, 486, 487, 488, 489, 490, 491, 492
 493, 494, 495, 496, 497, 498, 499, 500, 501, 502, 503, 504, 505, 506, 507, 508
 509, 510, 511, 512, 513, 514, 515, 516, 517, 518, 519, 520, 521, 522, 523, 524
 525, 526, 527, 528, 529, 530, 531, 532, 533, 534, 535, 536, 537, 538, 539, 540
 541, 542, 543, 544, 545, 546, 547, 548, 549, 550, 551, 552, 553, 554, 555, 556
 557, 558, 559, 560, 561, 562, 563, 564, 565, 566, 567, 568, 569, 570, 571, 572
 573, 574, 575, 576, 577, 578, 579, 580, 581, 582, 583, 584, 585, 586, 587, 588
 589, 590, 591, 592, 593, 594, 595, 596, 597, 598, 599, 600, 601, 602, 603, 604
 605, 606, 607, 608, 609, 610, 611, 612, 613, 614, 615, 616, 617, 618, 619, 620
 621, 622
*Elset, elset=Set-2, generate
 10664,  10952,      1
*Nset, nset=Set-3
   5,   6,   7,   8,   9,  10,  11,  12,  13,  14,  15,  16,  17,  24,  25,  26
  27,  28,  29,  30,  31,  32,  33,  34,  35,  36,  43,  44,  45,  46,  47,  48
  49,  50, 351, 352, 353, 354, 355, 356, 357, 358, 359, 360, 361, 362, 363, 364
 365, 366, 367, 368, 369, 370, 371, 372, 373, 374, 375, 376, 377, 378, 379, 380
 381, 382, 383, 384, 385, 386, 387, 388, 389, 390, 391, 392, 393, 394, 395, 396
 397, 398, 399, 400, 401, 402, 403, 404, 405, 406, 407, 408, 409, 410, 411, 412
 413, 414, 415, 416, 417, 418, 419, 420, 421, 422, 423, 424, 425, 426, 427, 428
 429, 430, 431, 432, 433, 434, 435, 436, 437, 438, 439, 440, 441, 442, 443, 444
 445, 446, 447, 448, 449, 450, 451, 452, 453, 454, 455, 456, 457, 458, 459, 460
 461, 462, 463, 464, 465, 466, 467, 468, 469, 470, 471, 472, 473, 474, 475, 476
 477, 478, 479, 480, 481, 482, 483, 484, 485, 486, 487, 488, 489, 490, 491, 492
 493, 494, 495, 496, 497, 498, 499, 500, 501, 502, 503, 504, 505, 506, 507, 508
 509, 510, 511, 512, 513, 514, 515, 516, 517, 518, 519, 520, 521, 522, 523, 524
 525, 526, 527, 528, 529, 530, 531, 532, 533, 534, 535, 536, 537, 538, 539, 540
 541, 542, 543, 544, 545, 546, 547, 548, 549, 550, 551, 552, 553, 554, 555, 556
 557, 558, 559, 560, 561, 562, 563, 564, 565, 566, 567, 568, 569, 570, 571, 572
 573, 574, 575, 576, 577, 578, 579, 580, 581, 582, 583, 584, 585, 586, 587, 588
 589, 590, 591, 592, 593, 594, 595, 596, 597, 598, 599, 600, 601, 602, 603, 604
 605, 606, 607, 608, 609, 610, 611, 612, 613, 614, 615, 616, 617, 618, 619, 620
 621, 622
*Elset, elset=Set-3, generate
 10664,  10952,      1
*Nset, nset=Set-4
     1,     2,     3,     4,     5,     6,     7,     8,     9,    10,    11,    12,    13,    14,    15,    16
    17,    18,    19,    20,    21,    22,    23,    24,    25,    26,    27,    28,    29,    30,    31,    32
    33,    34,    35,    36,    37,    38,    39,    40,    41,    42,    43,    44,    45,    46,    47,    48
    49,    50,    51,    52,    59,    60,    61,    62,    63,    64,    65,    66,    67,    68,    69,    70
    71,    72,    73,    74,    75,    76,    77,    78,    79,    80,    81,    82,    83,    84,    85,    86
    87,    88,    89,    90,    91,    92,    93,    94,    95,    96,    97,    98,    99,   100,   101,   102
   103,   104,   105,   106,   107,   108,   109,   110,   111,   112,   113,   114,   115,   116,   117,   118
   119,   120,   121,   122,   123,   124,   125,   126,   127,   128,   129,   130,   131,   132,   133,   134
   135,   136,   137,   138,   139,   140,   141,   142,   143,   144,   145,   146,   147,   148,   149,   150
   151,   152,   153,   154,   155,   156,   157,   158,   159,   160,   161,   162,   163,   164,   165,   166
   167,   168,   169,   170,   171,   172,   173,   174,   175,   176,   177,   178,   179,   180,   181,   182
   183,   184,   185,   186,   187,   188,   189,   190,   191,   192,   193,   194,   195,   196,   197,   198
   199,   200,   201,   202,   203,   204,   205,   206,   207,   208,   209,   210,   211,   212,   213,   214
   215,   216,   217,   218,   219,   220,   221,   222,   223,   224,   225,   226,   227,   228,   229,   230
   231,   232,   233,   234,   235,   236,   237,   238,   239,   240,   241,   242,   243,   244,   245,   246
   247,   248,   249,   250,   251,   252,   253,   254,   255,   256,   257,   258,   259,   260,   261,   262
   263,   264,   265,   266,   267,   268,   269,   270,   271,   272,   273,   274,   275,   276,   277,   278
   279,   280,   281,   282,   283,   284,   285,   286,   287,   288,   289,   290,   291,   292,   293,   294
   623,   624,   625,   626,   627,   628,   629,   630,   631,   632,   633,   634,   635,   636,   637,   638
   639,   640,   641,   642,   643,   644,   645,   646,   647,   648,   649,   650,   651,   652,   653,   654
** ... 1085 like lines cut
*Elset, elset=Set-4, generate
     1,  10329,      1
*Nset, nset=Set-5
     1,     4,    41,    42,    43,    44,    45,    46,    47,    48,    49,    50,    51,    52,    53,    54
    55,    56,    57,    58,   239,   240,   241,   242,   243,   244,   245,   246,   247,   248,   249,   250
   251,   252,   253,   254,   255,   256,   257,   258,   259,   260,   261,   262,   263,   264,   265,   266
   267,   268,   269,   270,   271,   272,   273,   274,   275,   276,   277,   278,   279,   280,   281,   282
   283,   284,   285,   286,   287,   288,   289,   290,   291,   292,   293,   294,   295,   296,   297,   298
   299,   300,   301,   302,   303,   304,   305,   306,   307,   308,   309,   310,   311,   312,   313,   314
   315,   316,   317,   318,   319,   320,   321,   322,   323,   324,   325,   326,   327,   328,   329,   330
   331,   332,   333,   334,   335,   336,   337,   338,   339,   340,   341,   342,   343,   344,   345,   346
   347,   348,   349,   350,  1421,  1422,  1423,  1424,  1425,  1426,  3066,  3067,  3068,  3069,  3070,  3071
  3072,  3073,  3074,  3075,  3076,  3077,  3078,  3079,  3080,  3081,  3082,  4824,  5759,  5774,  5775,  5776
  6392,  6396,  6401,  6677,  7274,  7290,  7292,  7429,  7825,  8228,  8527,  8748,  8827,  8920,  9494, 10084
 10088, 10093, 10095, 10236, 10240, 10241, 10242, 10260, 10268, 10273, 10275, 10277, 10438, 10440, 10442, 10452
 11896, 11905, 11906, 11907, 11908, 12152, 12153, 12155, 12165, 12317, 12410, 12411, 12413, 12415, 12554, 12561
 12707, 12709, 12733, 12734, 12746, 13693, 13727, 13729, 13730, 14304, 14308, 14374, 14409, 14410, 15328, 15331
 15332, 15333, 15353, 15355, 15369, 15370, 15371, 15444, 15459, 15460, 15471, 15495, 15496, 15497, 15499, 15500
 15528, 15542, 15545, 15603, 15604, 15612, 15614, 15863, 15872, 15890, 15891, 15892, 15914, 15922, 15924, 15933
 15934, 15936, 15973, 15980, 15981, 15998, 16006, 16007, 16020, 16025, 16068, 16498, 16500, 16502, 16520, 16664
 16665, 16752, 16754, 17171, 17799, 17804, 17805, 17810, 17813, 17814, 17815, 17816, 17819, 17821, 17823, 17824
 17828, 17829, 17830, 17833, 17834, 17835, 17840, 17842, 17843, 17848, 17851, 17853, 17855, 17857, 17859, 17861
 17863, 17864, 17866, 17867, 17868, 17869, 17871, 17872, 17875, 17878, 17879, 17901, 17902, 18009, 18032, 18033
** ... 29 like lines cut
*Elset, elset=Set-5, generate
 10330,  10663,      1
** Section: Cyto
*Solid Section, elset=Set-4, material=Cytoplasm
,
** Section: Cortex
*Solid Section, elset=Set-5, material=Actin_Cortex
,
** Section: ER  Profile: ER_Rectangular
*Beam Section, elset=Set-1, material=ER, temperature=GRADIENTS, section=RECT
0.1, 0.0691877
0.,0.,-1.
*End Part
**  
**
** ASSEMBLY
**
*Assembly, name=Assembly
**  
*Instance, name=Neg_R_5-1, part=Neg_R_5
*End Instance
**  
*Nset, nset=Parallel_ERs, instance=Neg_R_5-1
   5,   6,   7,   8,   9,  10,  11,  12,  13,  14,  15,  16,  17,  24,  25,  26
  27,  28,  29,  30,  31,  32,  33,  34,  35,  36,  43,  44,  45,  46,  47,  48
  49,  50, 351, 352, 353, 354, 355, 356, 357, 358, 359, 360, 361, 362, 363, 364
 365, 366, 367, 368, 369, 370, 371, 372, 373, 374, 375, 376, 377, 378, 379, 380
 381, 382, 383, 384, 385, 386, 387, 388, 389, 390, 391, 392, 393, 394, 395, 396
 397, 398, 399, 400, 401, 402, 403, 404, 405, 406, 407, 408, 409, 410, 411, 412
 413, 414, 415, 416, 417, 418, 419, 420, 421, 422, 423, 424, 425, 426, 427, 428
 429, 430, 431, 432, 433, 434, 435, 436, 437, 438, 439, 440, 441, 442, 443, 444
 445, 446, 447, 448, 449, 450, 451, 452, 453, 454, 455, 456, 457, 458, 459, 460
 461, 462, 463, 464, 465, 466, 467, 468, 469, 470, 471, 472, 473, 474, 475, 476
 477, 478, 479, 480, 481, 482, 483, 484, 485, 486, 487, 488, 489, 490, 491, 492
 493, 494, 495, 496, 497, 498, 499, 500, 501, 502, 503, 504, 505, 506, 507, 508
 509, 510, 511, 512, 513, 514, 515, 516, 517, 518, 519, 520, 521, 522, 523, 524
 525, 526, 527, 528, 529, 530, 531, 532, 533, 534, 535, 536, 537, 538, 539, 540
 541, 542, 543, 544, 545, 546, 547, 548, 549, 550, 551, 552, 553, 554, 555, 556
 557, 558, 559, 560, 561, 562, 563, 564, 565, 566, 567, 568, 569, 570, 571, 572
 573, 574, 575, 576, 577, 578, 579, 580, 581, 582, 583, 584, 585, 586, 587, 588
 589, 590, 591, 592, 593, 594, 595, 596, 597, 598, 599, 600, 601, 602, 603, 604
 605, 606, 607, 608, 609, 610, 611, 612, 613, 614, 615, 616, 617, 618, 619, 620
 621, 622
*Elset, elset=Parallel_ERs, instance=Neg_R_5-1, generate
 10664,  10952,      1
*Nset, nset=Set-42, instance=Neg_R_5-1
    19,    20,    22,    23,   123,   124,   125,   126,   127,   128,   129,   130,   131,   132,   133,   134
   135,   136,   137,   138,   139,   140,   141,   142,   143,   144,   145,   146,   147,   148,   149,   150
   151,   152,   153,   154,   155,   156,   157,   158,   159,   160,   161,   162,   163,   164,   165,   166
   167,   168,   169,   170,   171,   172,   173,   174,  4050,  5251,  5504,  5785,  5830,  5848,  5931,  5954
  6000,  6060,  6073,  6460,  7331,  7334,  7335,  7564,  7574,  8432,  8434,  8435,  8442,  8831,  8832,  8833
  8838,  8841,  8842,  8844,  8847,  8964,  9371,  9461,  9613,  9615,  9617,  9889,  9890,  9891,  9897,  9901
  9908, 11372, 11374, 11946, 11948, 11949, 12145, 12146, 13031, 13032, 13045, 13352, 13842, 13844, 13845, 13883
 13884, 13885, 13898, 13914, 13915, 13916, 13952, 13953, 13957, 13999, 14000, 14021, 14070, 14071, 14072, 14087
 14107, 14113, 14114, 14115, 14131, 14135, 14136, 14140, 14145, 14146, 14151, 14198, 14199, 14227, 14228, 14235
 14257, 14259, 14299, 14317, 14318, 14324, 14326, 14337, 14347, 14363, 14658, 14659, 15256, 15553, 15554, 15557
 15951, 15955, 16197, 16198, 16705
*Elset, elset=Set-42, instance=Neg_R_5-1
 1075, 1379, 1383, 1505, 1508, 1754, 1842, 2593, 2689, 3058, 3063, 3464, 3494, 3523, 3537, 3561
 3566, 3594, 3605, 3639, 3665, 3666, 3673, 3684, 3688, 3694, 3698, 3733, 3735, 3748, 3752, 3757
 3775, 3797, 3799, 3816, 4016, 4425, 4432, 4433, 4438, 4444, 4511, 4514, 4672, 4675, 4804, 4811
 5281, 5287, 5971, 9163, 9182, 9271
*Nset, nset=Set-43, instance=Neg_R_5-1
    22,    23,    24,    25,    26,    27,    28,    29,    30,    31,    32,    33,    34,    35,    36,    37
    38,    39,    40,   175,   176,   177,   178,   179,   180,   181,   182,   183,   184,   185,   186,   187
   188,   189,   190,   191,   192,   193,   194,   195,   196,   197,   198,   199,   200,   201,   202,   203
   204,   205,   206,   207,   208,   209,   210,   211,   212,   213,   214,   215,   216,   217,   218,   219
   220,   221,   222,   223,   224,   225,   226,   227,   228,   229,   230,   231,   232,   233,   234,   235
   236,   237,   238,   625,   626,  4314,  4316,  4318,  4903,  4908,  4911,  5548,  5553,  5556,  5557,  5804
  7454,  7562,  7572,  7574,  7575,  7576,  8535,  8549,  8587,  9014,  9358,  9452,  9453,  9455, 10447, 10456
 10457, 10523, 10524, 10551, 10552, 10553, 10571, 10840, 10841, 10842, 10849, 10853, 10855, 10858, 11294, 11304
 11693, 11852, 11866, 11873, 12016, 12018, 12020, 12056, 12061, 12063, 12065, 12203, 12374, 12376, 12378, 12913
 12973, 12989, 13001, 13417, 13706, 14096, 14159, 14163, 14360, 14406, 14407, 14408, 14413, 14451, 14470, 14471
 14476, 14477, 14512, 14513, 14516, 14531, 14533, 14546, 14548, 14549, 14551, 14552, 14557, 14558, 14582, 14583
 14584, 14585, 14593, 14608, 14610, 14611, 14617, 14641, 14642, 14654, 14655, 14656, 14660, 14661, 14674, 14677
 14685, 14686, 14695, 14696, 14700, 14703, 14732, 14765, 14767, 14769, 14788, 14790, 14791, 14800, 14812, 14814
 14820, 14821, 14825, 14830, 14831, 14833, 14853, 14873, 14874, 14875, 14877, 14898, 14903, 14904, 14905, 14914
 14921, 14922, 14924, 14974, 14975, 14976, 14978, 15000, 15001, 15007, 15008, 15015, 15037, 15039, 15098, 15099
 15105, 15121, 15139, 15140, 15142, 15143, 15144, 15148, 15166, 15168, 15197, 15198, 15199, 15217, 15277, 15282
 15285, 15311, 15725, 15756, 15759, 15767, 15778, 16436, 17047, 17860, 18006
*Elset, elset=Set-43, instance=Neg_R_5-1
  291,  603, 1142, 1143, 1701, 2041, 2050, 2163, 2167, 2638, 2654, 2788, 3814, 3843, 3847, 3887
 3897, 3916, 3937, 3940, 3942, 3945, 3963, 3965, 3970, 3979, 3990, 3999, 4011, 4013, 4017, 4025
 4033, 4038, 4040, 4041, 4057, 4069, 4081, 4084, 4091, 4095, 4099, 4102, 4104, 4105, 4122, 4130
 4138, 4139, 4154, 4161, 4167, 4213, 4214, 4228, 4240, 4248, 4264, 4265, 4308, 4314, 4325, 4326
 4336, 4337, 4341, 4344, 4354, 4356, 4379, 4381, 4382, 4395, 4398, 4454, 4456, 4458, 4462, 4476
 4479, 4772, 4819, 4837, 4840, 4846, 4876, 4877, 4884, 4890, 4907, 4908, 5558, 5639, 6577, 8667
 9575, 9812
*Nset, nset=Set-44, instance=Neg_R_5-1, generate
     1,  18492,      1
*Elset, elset=Set-44, instance=Neg_R_5-1, generate
     1,  10952,      1
*Nset, nset=Set-45, instance=Neg_R_5-1
    19,    20,    22,    23,   123,   124,   125,   126,   127,   128,   129,   130,   131,   132,   133,   134
   135,   136,   137,   138,   139,   140,   141,   142,   143,   144,   145,   146,   147,   148,   149,   150
   151,   152,   153,   154,   155,   156,   157,   158,   159,   160,   161,   162,   163,   164,   165,   166
   167,   168,   169,   170,   171,   172,   173,   174,  4050,  5251,  5504,  5785,  5830,  5848,  5931,  5954
  6000,  6060,  6073,  6460,  7331,  7334,  7335,  7564,  7574,  8432,  8434,  8435,  8442,  8831,  8832,  8833
  8838,  8841,  8842,  8844,  8847,  8964,  9371,  9461,  9613,  9615,  9617,  9889,  9890,  9891,  9897,  9901
  9908, 11372, 11374, 11946, 11948, 11949, 12145, 12146, 13031, 13032, 13045, 13352, 13842, 13844, 13845, 13883
 13884, 13885, 13898, 13914, 13915, 13916, 13952, 13953, 13957, 13999, 14000, 14021, 14070, 14071, 14072, 14087
 14107, 14113, 14114, 14115, 14131, 14135, 14136, 14140, 14145, 14146, 14151, 14198, 14199, 14227, 14228, 14235
 14257, 14259, 14299, 14317, 14318, 14324, 14326, 14337, 14347, 14363, 14658, 14659, 15256, 15553, 15554, 15557
 15951, 15955, 16197, 16198, 16705
*Elset, elset=Set-45, instance=Neg_R_5-1
 1075, 1379, 1383, 1505, 1508, 1754, 1842, 2593, 2689, 3058, 3063, 3464, 3494, 3523, 3537, 3561
 3566, 3594, 3605, 3639, 3665, 3666, 3673, 3684, 3688, 3694, 3698, 3733, 3735, 3748, 3752, 3757
 3775, 3797, 3799, 3816, 4016, 4425, 4432, 4433, 4438, 4444, 4511, 4514, 4672, 4675, 4804, 4811
 5281, 5287, 5971, 9163, 9182, 9271
*End Assembly
** 
** MATERIALS
** 
*Material, name=Actin_Cortex
*Depvar
     46,
*User Material, constants=6
 0.073,  0.45,    1., 0.001,   0.1,    1.
*Material, name=Cytoplasm
*Elastic
 0.073, 0.45
*Material, name=ER
*Elastic
 19.3, 0.45
** 
** BOUNDARY CONDITIONS
** 
** Name: BC-1 Type: Symmetry/Antisymmetry/Encastre
*Boundary
Set-45, ENCASTRE
** ----------------------------------------------------------------
** 
** STEP: Step-1
** 
*Step, name=Step-1, nlgeom=NO
*Static
0.001, 1., 1e-06, 1.
** 
** OUTPUT REQUESTS
** 
*Restart, write, frequency=0
** 
** FIELD OUTPUT: F-Output-1
** 
*Output, field
*Node Output
CF, RF, U
*Element Output, directions=YES
ELEDEN, LE, PE, PEEQ, PEMAG, S, SVOL
*Contact Output
CDISP, CSTRESS
** 
** HISTORY OUTPUT: H-Output-1
** 
*Output, history, variable=PRESELECT
** 
** HISTORY OUTPUT: H-Output-2
** 
*Output, history
*Energy Output, elset=Parallel_ERs, variable=PRESELECT
*End Step
